@<TRIPOS>MOLECULE
NAADP_entry_00001_conf_130
71 75 1
SMALL
NO_CHARGES


@<TRIPOS>ATOM
      1 P          14.2344   -1.8664  -37.9216 P.3       1 UNK0        0.0000
      2 O          13.6689   -1.3468  -39.1864 O.co2     1 UNK0        0.0000
      3 O          13.5609   -1.0979  -36.6774 O.co2     1 UNK0        0.0000
      4 O          13.9317   -3.4438  -37.8059 O.3       1 UNK0        0.0000
      5 C          14.2473   -4.3745  -38.8429 C.3       1 UNK0        0.0000
      6 C          13.2850   -4.1769  -40.0152 C.3       1 UNK0        0.0000
      7 O          13.5196   -5.1828  -41.0150 O.3       1 UNK0        0.0000
      8 C          11.8302   -4.3424  -39.5329 C.3       1 UNK0        0.0000
      9 O          11.0887   -3.1417  -39.7613 O.3       1 UNK0        0.0000
     10 C          11.2718   -5.4980  -40.3979 C.3       1 UNK0        0.0000
     11 O           9.9340   -5.2217  -40.8157 O.3       1 UNK0        0.0000
     12 C          12.2406   -5.4937  -41.6089 C.3       1 UNK0        0.0000
     13 N          12.2745   -6.8129  -42.2452 N.2       1 UNK0        0.0000
     14 C          11.1955   -7.5474  -42.6374 C.2       1 UNK0        0.0000
     15 N          11.5893   -8.6700  -43.1661 N.2       1 UNK0        0.0000
     16 C          12.9425   -8.7270  -43.1455 C.2       1 UNK0        0.0000
     17 C          13.8986   -9.6685  -43.5644 C.2       1 UNK0        0.0000
     18 N          13.5097  -10.8587  -44.1528 N.pl3     1 UNK0        0.0000
     19 N          15.1843   -9.3877  -43.3821 N.2       1 UNK0        0.0000
     20 C          15.5655   -8.2539  -42.8217 C.2       1 UNK0        0.0000
     21 N          14.7063   -7.3451  -42.4140 N.2       1 UNK0        0.0000
     22 C          13.3987   -7.5344  -42.5598 C.2       1 UNK0        0.0000
     23 O          15.8261   -1.6226  -37.9052 O.3       1 UNK0        0.0000
     24 P          17.0631   -2.2563  -38.7175 P.3       1 UNK0        0.0000
     25 O          17.0412   -3.7944  -38.5705 O.co2     1 UNK0        0.0000
     26 O          16.9455   -1.8808  -40.2108 O.co2     1 UNK0        0.0000
     27 O          18.4448   -1.6808  -38.1260 O.3       1 UNK0        0.0000
     28 C          18.8312   -0.3098  -38.2442 C.3       1 UNK0        0.0000
     29 C          20.3214   -0.1711  -37.9266 C.3       1 UNK0        0.0000
     30 O          20.5958   -0.7173  -36.6248 O.3       1 UNK0        0.0000
     31 C          21.1510   -0.9772  -38.9445 C.3       1 UNK0        0.0000
     32 O          22.0418   -0.1158  -39.6569 O.3       1 UNK0        0.0000
     33 C          21.9475   -1.9816  -38.0766 C.3       1 UNK0        0.0000
     34 O          23.2892   -2.1118  -38.5487 O.3       1 UNK0        0.0000
     35 C          21.9144   -1.3036  -36.6838 C.3       1 UNK0        0.0000
     36 N          22.0838   -2.2978  -35.6210 N.pl3     1 UNK0        0.0000
     37 C          21.0157   -2.8480  -35.0837 C.2       1 UNK0        0.0000
     38 C          21.1403   -3.7981  -34.0686 C.2       1 UNK0        0.0000
     39 C          19.9414   -4.4163  -33.4659 C.2       1 UNK0        0.0000
     40 O          20.0616   -5.2205  -32.5639 O.co2     1 UNK0        0.0000
     41 C          22.4218   -4.1552  -33.6307 C.2       1 UNK0        0.0000
     42 C          23.5121   -3.5475  -34.2287 C.2       1 UNK0        0.0000
     43 C          23.3038   -2.6188  -35.2321 C.2       1 UNK0        0.0000
     44 P           8.6942   -5.1401  -39.7910 P.3       1 UNK0        0.0000
     45 O           8.8754   -3.9793  -38.8898 O.co2     1 UNK0        0.0000
     46 O           7.3243   -4.9685  -40.6184 O.co2     1 UNK0        0.0000
     47 O           8.6297   -6.4916  -38.9184 O.co2     1 UNK0        0.0000
     48 O          18.7156   -4.0891  -33.9184 O.co2     1 UNK0        0.0000
     49 H          15.2708   -4.2094  -39.1803 H         1 UNK0        0.0000
     50 H          14.1512   -5.3909  -38.4607 H         1 UNK0        0.0000
     51 H          13.4239   -3.1859  -40.4466 H         1 UNK0        0.0000
     52 H          11.8069   -4.6105  -38.4766 H         1 UNK0        0.0000
     53 H          10.1346   -3.2760  -39.8367 H         1 UNK0        0.0000
     54 H          11.3223   -6.4445  -39.8619 H         1 UNK0        0.0000
     55 H          11.9537   -4.7274  -42.3278 H         1 UNK0        0.0000
     56 H          10.1644   -7.2432  -42.5271 H         1 UNK0        0.0000
     57 H          12.5675  -11.0515  -44.2805 H         1 UNK0        0.0000
     58 H          14.1786  -11.4998  -44.4381 H         1 UNK0        0.0000
     59 H          16.6216   -8.0672  -42.6923 H         1 UNK0        0.0000
     60 H          18.6417    0.0345  -39.2600 H         1 UNK0        0.0000
     61 H          18.2531    0.2916  -37.5420 H         1 UNK0        0.0000
     62 H          20.6115    0.8788  -37.9567 H         1 UNK0        0.0000
     63 H          20.4965   -1.5060  -39.6370 H         1 UNK0        0.0000
     64 H          22.9766   -0.3372  -39.5443 H         1 UNK0        0.0000
     65 H          21.4505   -2.9513  -38.0494 H         1 UNK0        0.0000
     66 H          23.9449   -1.6558  -38.0023 H         1 UNK0        0.0000
     67 H          22.6805   -0.5316  -36.6133 H         1 UNK0        0.0000
     68 H          20.0334   -2.5611  -35.4307 H         1 UNK0        0.0000
     69 H          22.5559   -4.8865  -32.8471 H         1 UNK0        0.0000
     70 H          24.5153   -3.7982  -33.9167 H         1 UNK0        0.0000
     71 H          24.1526   -2.1467  -35.7036 H         1 UNK0        0.0000
@<TRIPOS>BOND
     1    1    2 1
     2    1    3 2
     3    1    4 1
     4    1   23 1
     5    4    5 1
     6    5    6 1
     7    5   49 1
     8    5   50 1
     9    6    7 1
    10    6    8 1
    11    6   51 1
    12    7   12 1
    13    8    9 1
    14    8   10 1
    15    8   52 1
    16    9   53 1
    17   10   11 1
    18   10   12 1
    19   10   54 1
    20   11   44 1
    21   12   13 1
    22   12   55 1
    23   13   14 ar
    24   13   22 ar
    25   14   15 ar
    26   14   56 1
    27   15   16 ar
    28   16   17 ar
    29   16   22 ar
    30   17   18 1
    31   17   19 ar
    32   18   57 1
    33   18   58 1
    34   19   20 ar
    35   20   21 ar
    36   20   59 1
    37   21   22 ar
    38   23   24 1
    39   24   25 1
    40   24   26 2
    41   24   27 1
    42   27   28 1
    43   28   29 1
    44   28   60 1
    45   28   61 1
    46   29   30 1
    47   29   31 1
    48   29   62 1
    49   30   35 1
    50   31   32 1
    51   31   33 1
    52   31   63 1
    53   32   64 1
    54   33   34 1
    55   33   35 1
    56   33   65 1
    57   34   66 1
    58   35   36 1
    59   35   67 1
    60   36   37 ar
    61   36   43 ar
    62   37   38 ar
    63   37   68 1
    64   38   39 1
    65   38   41 ar
    66   39   40 ar
    67   39   48 ar
    68   41   42 ar
    69   41   69 1
    70   42   43 ar
    71   42   70 1
    72   43   71 1
    73   44   45 1
    74   44   46 1
    75   44   47 2
@<TRIPOS>SUBSTRUCTURE
1 UNK0 1
@<TRIPOS>COMMENT
NAADP
PLANTSmolcadARTstart hb
PLANTSmolcadARTstart HB
LINES
23.9449 -1.65584 -38.0023 25.679 -1.554 -37.097 0 255 0 5
PLANTSmolcadARTstart HBCH
LINES
PLANTSmolcadARTstart HB-CHO
LINES
PLANTSmolcadARTend
PLANTSmolcadARTstart HB_WATER
LINES
PLANTSmolcadARTend

PLANTSmolcadARTend

