@<TRIPOS>MOLECULE
NAADP_entry_00001_conf_142
71 75 1
SMALL
NO_CHARGES


@<TRIPOS>ATOM
      1 P          24.4552   -4.1182  -31.8660 P.3       1 UNK0        0.0000
      2 O          25.8755   -3.7034  -31.8791 O.co2     1 UNK0        0.0000
      3 O          24.3586   -5.6906  -31.5338 O.co2     1 UNK0        0.0000
      4 O          23.6618   -3.2821  -30.7414 O.3       1 UNK0        0.0000
      5 C          24.2841   -2.7936  -29.5517 C.3       1 UNK0        0.0000
      6 C          24.9875   -3.9468  -28.8342 C.3       1 UNK0        0.0000
      7 O          25.7110   -3.4464  -27.6973 O.3       1 UNK0        0.0000
      8 C          23.9433   -4.9503  -28.3060 C.3       1 UNK0        0.0000
      9 O          24.1523   -6.2402  -28.8857 O.3       1 UNK0        0.0000
     10 C          24.1959   -4.9940  -26.7796 C.3       1 UNK0        0.0000
     11 O          24.1038   -6.3311  -26.2856 O.3       1 UNK0        0.0000
     12 C          25.6504   -4.4660  -26.6765 C.3       1 UNK0        0.0000
     13 N          25.8948   -3.8863  -25.3535 N.2       1 UNK0        0.0000
     14 C          25.6722   -4.4928  -24.1534 C.2       1 UNK0        0.0000
     15 N          25.9992   -3.6905  -23.1816 N.2       1 UNK0        0.0000
     16 C          26.4500   -2.5212  -23.6955 C.2       1 UNK0        0.0000
     17 C          26.9260   -1.3181  -23.1459 C.2       1 UNK0        0.0000
     18 N          27.0093   -1.1501  -21.7752 N.pl3     1 UNK0        0.0000
     19 N          27.2942   -0.3468  -23.9742 N.2       1 UNK0        0.0000
     20 C          27.2189   -0.4979  -25.2843 C.2       1 UNK0        0.0000
     21 N          26.7791   -1.6050  -25.8422 N.2       1 UNK0        0.0000
     22 C          26.3938   -2.6344  -25.0946 C.2       1 UNK0        0.0000
     23 O          23.7996   -3.8331  -33.3090 O.3       1 UNK0        0.0000
     24 P          22.2867   -3.7175  -33.8471 P.3       1 UNK0        0.0000
     25 O          22.3000   -3.5011  -35.3771 O.co2     1 UNK0        0.0000
     26 O          21.5220   -5.0182  -33.5183 O.co2     1 UNK0        0.0000
     27 O          21.5579   -2.4714  -33.1356 O.3       1 UNK0        0.0000
     28 C          22.2316   -1.2501  -32.8231 C.3       1 UNK0        0.0000
     29 C          22.0738   -0.2690  -33.9863 C.3       1 UNK0        0.0000
     30 O          22.3054   -0.9483  -35.2326 O.3       1 UNK0        0.0000
     31 C          20.6319    0.2730  -34.0224 C.3       1 UNK0        0.0000
     32 O          20.6286    1.6944  -33.8723 O.3       1 UNK0        0.0000
     33 C          20.1104   -0.1247  -35.4247 C.3       1 UNK0        0.0000
     34 O          19.3445    0.9331  -36.0030 O.3       1 UNK0        0.0000
     35 C          21.4279   -0.3467  -36.2093 C.3       1 UNK0        0.0000
     36 N          21.2110   -1.2571  -37.3365 N.pl3     1 UNK0        0.0000
     37 C          20.4226   -2.2986  -37.1748 C.2       1 UNK0        0.0000
     38 C          20.1943   -3.1869  -38.2272 C.2       1 UNK0        0.0000
     39 C          19.3088   -4.3556  -38.0461 C.2       1 UNK0        0.0000
     40 O          19.0585   -5.0794  -38.9886 O.co2     1 UNK0        0.0000
     41 C          20.8194   -2.9514  -39.4582 C.2       1 UNK0        0.0000
     42 C          21.6384   -1.8418  -39.5760 C.2       1 UNK0        0.0000
     43 C          21.8090   -1.0073  -38.4866 C.2       1 UNK0        0.0000
     44 P          22.7136   -7.1391  -26.1952 P.3       1 UNK0        0.0000
     45 O          21.7676   -6.3967  -25.3311 O.co2     1 UNK0        0.0000
     46 O          22.0857   -7.2939  -27.6692 O.co2     1 UNK0        0.0000
     47 O          22.9807   -8.5979  -25.5685 O.co2     1 UNK0        0.0000
     48 O          18.7779   -4.6169  -36.8360 O.co2     1 UNK0        0.0000
     49 H          25.0146   -2.0272  -29.8120 H         1 UNK0        0.0000
     50 H          23.5270   -2.3645  -28.8953 H         1 UNK0        0.0000
     51 H          25.6722   -4.4473  -29.5184 H         1 UNK0        0.0000
     52 H          22.9340   -4.5964  -28.5159 H         1 UNK0        0.0000
     53 H          24.3205   -6.9398  -28.2405 H         1 UNK0        0.0000
     54 H          23.5050   -4.3380  -26.2521 H         1 UNK0        0.0000
     55 H          26.3638   -5.2622  -26.8852 H         1 UNK0        0.0000
     56 H          25.2827   -5.4927  -24.0261 H         1 UNK0        0.0000
     57 H          26.7375   -1.8675  -21.1812 H         1 UNK0        0.0000
     58 H          27.3398   -0.3160  -21.4081 H         1 UNK0        0.0000
     59 H          27.5283    0.3185  -25.9204 H         1 UNK0        0.0000
     60 H          21.8001   -0.8181  -31.9211 H         1 UNK0        0.0000
     61 H          23.2906   -1.4519  -32.6597 H         1 UNK0        0.0000
     62 H          22.7793    0.5542  -33.8762 H         1 UNK0        0.0000
     63 H          20.0290   -0.1942  -33.2441 H         1 UNK0        0.0000
     64 H          21.0615    2.1671  -34.5967 H         1 UNK0        0.0000
     65 H          19.5268   -1.0440  -35.3760 H         1 UNK0        0.0000
     66 H          18.4199    0.9511  -35.7181 H         1 UNK0        0.0000
     67 H          21.8343    0.6035  -36.5557 H         1 UNK0        0.0000
     68 H          19.9486   -2.4683  -36.2187 H         1 UNK0        0.0000
     69 H          20.6658   -3.6179  -40.2943 H         1 UNK0        0.0000
     70 H          22.1368   -1.6287  -40.5102 H         1 UNK0        0.0000
     71 H          22.4436   -0.1385  -38.5770 H         1 UNK0        0.0000
@<TRIPOS>BOND
     1    1    2 1
     2    1    3 2
     3    1    4 1
     4    1   23 1
     5    4    5 1
     6    5    6 1
     7    5   49 1
     8    5   50 1
     9    6    7 1
    10    6    8 1
    11    6   51 1
    12    7   12 1
    13    8    9 1
    14    8   10 1
    15    8   52 1
    16    9   53 1
    17   10   11 1
    18   10   12 1
    19   10   54 1
    20   11   44 1
    21   12   13 1
    22   12   55 1
    23   13   14 ar
    24   13   22 ar
    25   14   15 ar
    26   14   56 1
    27   15   16 ar
    28   16   17 ar
    29   16   22 ar
    30   17   18 1
    31   17   19 ar
    32   18   57 1
    33   18   58 1
    34   19   20 ar
    35   20   21 ar
    36   20   59 1
    37   21   22 ar
    38   23   24 1
    39   24   25 1
    40   24   26 2
    41   24   27 1
    42   27   28 1
    43   28   29 1
    44   28   60 1
    45   28   61 1
    46   29   30 1
    47   29   31 1
    48   29   62 1
    49   30   35 1
    50   31   32 1
    51   31   33 1
    52   31   63 1
    53   32   64 1
    54   33   34 1
    55   33   35 1
    56   33   65 1
    57   34   66 1
    58   35   36 1
    59   35   67 1
    60   36   37 ar
    61   36   43 ar
    62   37   38 ar
    63   37   68 1
    64   38   39 1
    65   38   41 ar
    66   39   40 ar
    67   39   48 ar
    68   41   42 ar
    69   41   69 1
    70   42   43 ar
    71   42   70 1
    72   43   71 1
    73   44   45 1
    74   44   46 1
    75   44   47 2
@<TRIPOS>SUBSTRUCTURE
1 UNK0 1
@<TRIPOS>COMMENT
NAADP
PLANTSmolcadARTstart hb
PLANTSmolcadARTstart HB
LINES
21.0615 2.16711 -34.5967 22.445 2.573 -36.01 0 255 0 5
PLANTSmolcadARTstart HBCH
LINES
PLANTSmolcadARTstart HB-CHO
LINES
PLANTSmolcadARTend
PLANTSmolcadARTstart HB_WATER
LINES
PLANTSmolcadARTend

PLANTSmolcadARTend

