@<TRIPOS>MOLECULE
NAADP_entry_00001_conf_187
71 75 1
SMALL
NO_CHARGES


@<TRIPOS>ATOM
      1 P           9.5089   -1.4356  -35.0971 P.3       1 UNK0        0.0000
      2 O           8.9744   -2.6362  -34.4170 O.co2     1 UNK0        0.0000
      3 O          10.9017   -1.0070  -34.4125 O.co2     1 UNK0        0.0000
      4 O           9.7549   -1.7651  -36.6540 O.3       1 UNK0        0.0000
      5 C          10.3289   -2.9920  -37.1083 C.3       1 UNK0        0.0000
      6 C          11.7881   -3.0700  -36.6565 C.3       1 UNK0        0.0000
      7 O          12.3034   -4.3909  -36.8941 O.3       1 UNK0        0.0000
      8 C          12.6453   -2.0897  -37.4812 C.3       1 UNK0        0.0000
      9 O          13.2669   -1.1279  -36.6254 O.3       1 UNK0        0.0000
     10 C          13.7119   -2.9885  -38.1521 C.3       1 UNK0        0.0000
     11 O          14.9944   -2.3599  -38.1317 O.3       1 UNK0        0.0000
     12 C          13.6973   -4.2436  -37.2414 C.3       1 UNK0        0.0000
     13 N          14.1724   -5.4183  -37.9766 N.2       1 UNK0        0.0000
     14 C          13.7092   -5.8581  -39.1807 C.2       1 UNK0        0.0000
     15 N          14.3553   -6.9290  -39.5421 N.2       1 UNK0        0.0000
     16 C          15.2706   -7.2439  -38.5946 C.2       1 UNK0        0.0000
     17 C          16.2250   -8.2647  -38.4428 C.2       1 UNK0        0.0000
     18 N          16.3755   -9.2427  -39.4097 N.pl3     1 UNK0        0.0000
     19 N          16.9792   -8.2674  -37.3490 N.2       1 UNK0        0.0000
     20 C          16.8434   -7.3377  -36.4205 C.2       1 UNK0        0.0000
     21 N          15.9634   -6.3650  -36.5202 N.2       1 UNK0        0.0000
     22 C          15.1684   -6.2759  -37.5817 C.2       1 UNK0        0.0000
     23 O           8.4516   -0.2283  -34.9644 O.3       1 UNK0        0.0000
     24 P           8.0004    0.7356  -33.7565 P.3       1 UNK0        0.0000
     25 O           8.1779   -0.0061  -32.4126 O.co2     1 UNK0        0.0000
     26 O           8.8734    2.0095  -33.7601 O.co2     1 UNK0        0.0000
     27 O           6.4547    1.1431  -33.9438 O.3       1 UNK0        0.0000
     28 C           5.9307    2.4127  -33.5481 C.3       1 UNK0        0.0000
     29 C           4.4045    2.3886  -33.6509 C.3       1 UNK0        0.0000
     30 O           4.0108    2.0002  -34.9785 O.3       1 UNK0        0.0000
     31 C           3.8306    1.3398  -32.6788 C.3       1 UNK0        0.0000
     32 O           2.9574    1.9605  -31.7327 O.3       1 UNK0        0.0000
     33 C           3.0403    0.3688  -33.5893 C.3       1 UNK0        0.0000
     34 O           1.8053   -0.0105  -32.9802 O.3       1 UNK0        0.0000
     35 C           2.7924    1.2356  -34.8494 C.3       1 UNK0        0.0000
     36 N           2.5888    0.3886  -36.0275 N.pl3     1 UNK0        0.0000
     37 C           3.1814   -0.7855  -36.0811 C.2       1 UNK0        0.0000
     38 C           3.0100   -1.6177  -37.1887 C.2       1 UNK0        0.0000
     39 C           3.6746   -2.9359  -37.2487 C.2       1 UNK0        0.0000
     40 O           3.5163   -3.6519  -38.2168 O.co2     1 UNK0        0.0000
     41 C           2.1974   -1.1815  -38.2426 C.2       1 UNK0        0.0000
     42 C           1.5968    0.0610  -38.1366 C.2       1 UNK0        0.0000
     43 C           1.8133    0.8233  -37.0033 C.2       1 UNK0        0.0000
     44 P          15.3610   -1.0848  -39.0447 P.3       1 UNK0        0.0000
     45 O          16.8032   -0.7785  -38.9067 O.co2     1 UNK0        0.0000
     46 O          15.0271   -1.4133  -40.5846 O.co2     1 UNK0        0.0000
     47 O          14.4948    0.1849  -38.5655 O.co2     1 UNK0        0.0000
     48 O           4.4542   -3.3439  -36.2288 O.co2     1 UNK0        0.0000
     49 H           9.7727   -3.8307  -36.6889 H         1 UNK0        0.0000
     50 H          10.2823   -3.0343  -38.1965 H         1 UNK0        0.0000
     51 H          11.8619   -2.8285  -35.5964 H         1 UNK0        0.0000
     52 H          12.0361   -1.5920  -38.2357 H         1 UNK0        0.0000
     53 H          13.7450   -1.5145  -35.8797 H         1 UNK0        0.0000
     54 H          13.4215   -3.2427  -39.1704 H         1 UNK0        0.0000
     55 H          14.3006   -4.0783  -36.3497 H         1 UNK0        0.0000
     56 H          12.9224   -5.3873  -39.7525 H         1 UNK0        0.0000
     57 H          15.8187   -9.2291  -40.2041 H         1 UNK0        0.0000
     58 H          17.0377   -9.9412  -39.2939 H         1 UNK0        0.0000
     59 H          17.4772   -7.3790  -35.5468 H         1 UNK0        0.0000
     60 H           6.2233    2.6216  -32.5199 H         1 UNK0        0.0000
     61 H           6.3264    3.1886  -34.2041 H         1 UNK0        0.0000
     62 H           4.0009    3.3737  -33.4179 H         1 UNK0        0.0000
     63 H           4.6356    0.8132  -32.1667 H         1 UNK0        0.0000
     64 H           3.4026    2.2725  -30.9327 H         1 UNK0        0.0000
     65 H           3.6382   -0.5095  -33.8326 H         1 UNK0        0.0000
     66 H           1.5071   -0.9005  -33.2155 H         1 UNK0        0.0000
     67 H           1.9390    1.8970  -34.6998 H         1 UNK0        0.0000
     68 H           3.8069   -1.1077  -35.2610 H         1 UNK0        0.0000
     69 H           2.0425   -1.7991  -39.1152 H         1 UNK0        0.0000
     70 H           0.9635    0.4300  -38.9299 H         1 UNK0        0.0000
     71 H           1.3424    1.7909  -36.9159 H         1 UNK0        0.0000
@<TRIPOS>BOND
     1    1    2 1
     2    1    3 2
     3    1    4 1
     4    1   23 1
     5    4    5 1
     6    5    6 1
     7    5   49 1
     8    5   50 1
     9    6    7 1
    10    6    8 1
    11    6   51 1
    12    7   12 1
    13    8    9 1
    14    8   10 1
    15    8   52 1
    16    9   53 1
    17   10   11 1
    18   10   12 1
    19   10   54 1
    20   11   44 1
    21   12   13 1
    22   12   55 1
    23   13   14 ar
    24   13   22 ar
    25   14   15 ar
    26   14   56 1
    27   15   16 ar
    28   16   17 ar
    29   16   22 ar
    30   17   18 1
    31   17   19 ar
    32   18   57 1
    33   18   58 1
    34   19   20 ar
    35   20   21 ar
    36   20   59 1
    37   21   22 ar
    38   23   24 1
    39   24   25 1
    40   24   26 2
    41   24   27 1
    42   27   28 1
    43   28   29 1
    44   28   60 1
    45   28   61 1
    46   29   30 1
    47   29   31 1
    48   29   62 1
    49   30   35 1
    50   31   32 1
    51   31   33 1
    52   31   63 1
    53   32   64 1
    54   33   34 1
    55   33   35 1
    56   33   65 1
    57   34   66 1
    58   35   36 1
    59   35   67 1
    60   36   37 ar
    61   36   43 ar
    62   37   38 ar
    63   37   68 1
    64   38   39 1
    65   38   41 ar
    66   39   40 ar
    67   39   48 ar
    68   41   42 ar
    69   41   69 1
    70   42   43 ar
    71   42   70 1
    72   43   71 1
    73   44   45 1
    74   44   46 1
    75   44   47 2
@<TRIPOS>SUBSTRUCTURE
1 UNK0 1
@<TRIPOS>COMMENT
NAADP
PLANTSmolcadARTstart hb
PLANTSmolcadARTstart HB
LINES
PLANTSmolcadARTstart HBCH
LINES
PLANTSmolcadARTstart HB-CHO
LINES
PLANTSmolcadARTend
PLANTSmolcadARTstart HB_WATER
LINES
PLANTSmolcadARTend

PLANTSmolcadARTend

