@<TRIPOS>MOLECULE
NAADP_entry_00001_conf_322
71 75 1
SMALL
NO_CHARGES


@<TRIPOS>ATOM
      1 P          18.2017   -3.2900  -30.4488 P.3       1 UNK0        0.0000
      2 O          17.0154   -3.8081  -31.1657 O.co2     1 UNK0        0.0000
      3 O          17.7647   -2.7842  -28.9841 O.co2     1 UNK0        0.0000
      4 O          19.2978   -4.4613  -30.3075 O.3       1 UNK0        0.0000
      5 C          18.9572   -5.8103  -29.9832 C.3       1 UNK0        0.0000
      6 C          18.4905   -5.8824  -28.5283 C.3       1 UNK0        0.0000
      7 O          17.9560   -7.1877  -28.2506 O.3       1 UNK0        0.0000
      8 C          19.6886   -5.6683  -27.5823 C.3       1 UNK0        0.0000
      9 O          19.4741   -4.5212  -26.7566 O.3       1 UNK0        0.0000
     10 C          19.7297   -6.9551  -26.7233 C.3       1 UNK0        0.0000
     11 O          20.0143   -6.6477  -25.3577 O.3       1 UNK0        0.0000
     12 C          18.2840   -7.4946  -26.8782 C.3       1 UNK0        0.0000
     13 N          18.2476   -8.9413  -26.6504 N.2       1 UNK0        0.0000
     14 C          18.1620   -9.5658  -25.4420 C.2       1 UNK0        0.0000
     15 N          18.1529  -10.8571  -25.6077 N.2       1 UNK0        0.0000
     16 C          18.2330  -11.1419  -26.9295 C.2       1 UNK0        0.0000
     17 C          18.2652  -12.3268  -27.6851 C.2       1 UNK0        0.0000
     18 N          18.2076  -13.5628  -27.0663 N.pl3     1 UNK0        0.0000
     19 N          18.3519  -12.2311  -29.0074 N.2       1 UNK0        0.0000
     20 C          18.4070  -11.0556  -29.6074 C.2       1 UNK0        0.0000
     21 N          18.3808   -9.9218  -28.9408 N.2       1 UNK0        0.0000
     22 C          18.2891   -9.9169  -27.6148 C.2       1 UNK0        0.0000
     23 O          18.8334   -2.0605  -31.2750 O.3       1 UNK0        0.0000
     24 P          19.8073   -1.9543  -32.5524 P.3       1 UNK0        0.0000
     25 O          19.3831   -2.9972  -33.6108 O.co2     1 UNK0        0.0000
     26 O          19.7095   -0.5373  -33.1586 O.co2     1 UNK0        0.0000
     27 O          21.3241   -2.2399  -32.0962 O.3       1 UNK0        0.0000
     28 C          21.8121   -3.5482  -31.7910 C.3       1 UNK0        0.0000
     29 C          23.2513   -3.4493  -31.2817 C.3       1 UNK0        0.0000
     30 O          23.5414   -4.5628  -30.4190 O.3       1 UNK0        0.0000
     31 C          24.2326   -3.5221  -32.4674 C.3       1 UNK0        0.0000
     32 O          25.0231   -2.3332  -32.5354 O.3       1 UNK0        0.0000
     33 C          25.1238   -4.7474  -32.1496 C.3       1 UNK0        0.0000
     34 O          26.4905   -4.4803  -32.4675 O.3       1 UNK0        0.0000
     35 C          24.9313   -4.8999  -30.6198 C.3       1 UNK0        0.0000
     36 N          25.1922   -6.2796  -30.2011 N.pl3     1 UNK0        0.0000
     37 C          24.9243   -7.2623  -31.0347 C.2       1 UNK0        0.0000
     38 C          25.1598   -8.5886  -30.6683 C.2       1 UNK0        0.0000
     39 C          24.8598   -9.6918  -31.6041 C.2       1 UNK0        0.0000
     40 O          25.1013  -10.8390  -31.2873 O.co2     1 UNK0        0.0000
     41 C          25.6851   -8.8558  -29.3978 C.2       1 UNK0        0.0000
     42 C          25.9496   -7.7867  -28.5595 C.2       1 UNK0        0.0000
     43 C          25.6926   -6.5012  -28.9999 C.2       1 UNK0        0.0000
     44 P          21.4966   -6.3121  -24.8246 P.3       1 UNK0        0.0000
     45 O          22.2964   -7.5573  -24.7763 O.co2     1 UNK0        0.0000
     46 O          22.1999   -5.2608  -25.8200 O.co2     1 UNK0        0.0000
     47 O          21.4046   -5.6762  -23.3483 O.co2     1 UNK0        0.0000
     48 O          24.3204   -9.4245  -32.8092 O.co2     1 UNK0        0.0000
     49 H          18.1562   -6.1509  -30.6397 H         1 UNK0        0.0000
     50 H          19.8311   -6.4481  -30.1169 H         1 UNK0        0.0000
     51 H          17.7302   -5.1237  -28.3443 H         1 UNK0        0.0000
     52 H          20.6108   -5.5607  -28.1532 H         1 UNK0        0.0000
     53 H          20.2850   -4.0601  -26.5040 H         1 UNK0        0.0000
     54 H          20.4548   -7.6643  -27.1197 H         1 UNK0        0.0000
     55 H          17.6072   -6.9809  -26.1967 H         1 UNK0        0.0000
     56 H          18.1085   -9.0639  -24.4864 H         1 UNK0        0.0000
     57 H          18.1440  -13.6189  -26.0998 H         1 UNK0        0.0000
     58 H          18.2300  -14.3729  -27.5984 H         1 UNK0        0.0000
     59 H          18.4778  -11.0246  -30.6849 H         1 UNK0        0.0000
     60 H          21.1845   -3.9999  -31.0239 H         1 UNK0        0.0000
     61 H          21.7872   -4.1634  -32.6909 H         1 UNK0        0.0000
     62 H          23.3900   -2.5143  -30.7393 H         1 UNK0        0.0000
     63 H          23.6923   -3.6749  -33.4013 H         1 UNK0        0.0000
     64 H          25.0725   -1.8458  -31.7014 H         1 UNK0        0.0000
     65 H          24.7693   -5.6331  -32.6767 H         1 UNK0        0.0000
     66 H          26.7658   -3.5701  -32.2884 H         1 UNK0        0.0000
     67 H          25.5757   -4.2063  -30.0797 H         1 UNK0        0.0000
     68 H          24.5176   -7.0408  -32.0110 H         1 UNK0        0.0000
     69 H          25.8797   -9.8699  -29.0806 H         1 UNK0        0.0000
     70 H          26.3551   -7.9548  -27.5727 H         1 UNK0        0.0000
     71 H          25.9023   -5.6650  -28.3498 H         1 UNK0        0.0000
@<TRIPOS>BOND
     1    1    2 1
     2    1    3 2
     3    1    4 1
     4    1   23 1
     5    4    5 1
     6    5    6 1
     7    5   49 1
     8    5   50 1
     9    6    7 1
    10    6    8 1
    11    6   51 1
    12    7   12 1
    13    8    9 1
    14    8   10 1
    15    8   52 1
    16    9   53 1
    17   10   11 1
    18   10   12 1
    19   10   54 1
    20   11   44 1
    21   12   13 1
    22   12   55 1
    23   13   14 ar
    24   13   22 ar
    25   14   15 ar
    26   14   56 1
    27   15   16 ar
    28   16   17 ar
    29   16   22 ar
    30   17   18 1
    31   17   19 ar
    32   18   57 1
    33   18   58 1
    34   19   20 ar
    35   20   21 ar
    36   20   59 1
    37   21   22 ar
    38   23   24 1
    39   24   25 1
    40   24   26 2
    41   24   27 1
    42   27   28 1
    43   28   29 1
    44   28   60 1
    45   28   61 1
    46   29   30 1
    47   29   31 1
    48   29   62 1
    49   30   35 1
    50   31   32 1
    51   31   33 1
    52   31   63 1
    53   32   64 1
    54   33   34 1
    55   33   35 1
    56   33   65 1
    57   34   66 1
    58   35   36 1
    59   35   67 1
    60   36   37 ar
    61   36   43 ar
    62   37   38 ar
    63   37   68 1
    64   38   39 1
    65   38   41 ar
    66   39   40 ar
    67   39   48 ar
    68   41   42 ar
    69   41   69 1
    70   42   43 ar
    71   42   70 1
    72   43   71 1
    73   44   45 1
    74   44   46 1
    75   44   47 2
@<TRIPOS>SUBSTRUCTURE
1 UNK0 1
@<TRIPOS>COMMENT
NAADP
PLANTSmolcadARTstart hb
PLANTSmolcadARTstart HB
LINES
20.285 -4.06013 -26.504 21.27 -2.223 -26.332 0 255 0 5
PLANTSmolcadARTstart HBCH
LINES
PLANTSmolcadARTstart HB-CHO
LINES
PLANTSmolcadARTend
PLANTSmolcadARTstart HB_WATER
LINES
PLANTSmolcadARTend

PLANTSmolcadARTend

