@<TRIPOS>MOLECULE
NAADP_entry_00001_conf_38
71 75 1
SMALL
NO_CHARGES


@<TRIPOS>ATOM
      1 P          24.1344   -3.5476  -31.5789 P.3       1 UNK0        0.0000
      2 O          25.0033   -4.5386  -30.9061 O.co2     1 UNK0        0.0000
      3 O          22.8030   -3.3194  -30.7029 O.co2     1 UNK0        0.0000
      4 O          24.9253   -2.1527  -31.7271 O.3       1 UNK0        0.0000
      5 C          26.3352   -2.0773  -31.9458 C.3       1 UNK0        0.0000
      6 C          27.0714   -2.5697  -30.6989 C.3       1 UNK0        0.0000
      7 O          28.3497   -1.9200  -30.5975 O.3       1 UNK0        0.0000
      8 C          26.2690   -2.1994  -29.4358 C.3       1 UNK0        0.0000
      9 O          25.9078   -3.3772  -28.7105 O.3       1 UNK0        0.0000
     10 C          27.2444   -1.3294  -28.6070 C.3       1 UNK0        0.0000
     11 O          27.1631   -1.6542  -27.2183 O.3       1 UNK0        0.0000
     12 C          28.6212   -1.7402  -29.1906 C.3       1 UNK0        0.0000
     13 N          29.6050   -0.6740  -28.9874 N.2       1 UNK0        0.0000
     14 C          30.6563   -0.7009  -28.1204 C.2       1 UNK0        0.0000
     15 N          31.3260    0.4129  -28.1979 N.2       1 UNK0        0.0000
     16 C          30.7475    1.2230  -29.1164 C.2       1 UNK0        0.0000
     17 C          31.0198    2.5110  -29.6095 C.2       1 UNK0        0.0000
     18 N          32.0997    3.2359  -29.1380 N.pl3     1 UNK0        0.0000
     19 N          30.2156    3.0149  -30.5393 N.2       1 UNK0        0.0000
     20 C          29.1824    2.3304  -30.9961 C.2       1 UNK0        0.0000
     21 N          28.8894    1.1232  -30.5632 N.2       1 UNK0        0.0000
     22 C          29.6401    0.5339  -29.6380 C.2       1 UNK0        0.0000
     23 O          23.7294   -4.0927  -33.0391 O.3       1 UNK0        0.0000
     24 P          22.9241   -3.4649  -34.2836 P.3       1 UNK0        0.0000
     25 O          23.6489   -2.1920  -34.7759 O.co2     1 UNK0        0.0000
     26 O          22.8615   -4.4971  -35.4305 O.co2     1 UNK0        0.0000
     27 O          21.4302   -3.0857  -33.8199 O.3       1 UNK0        0.0000
     28 C          21.1515   -2.2926  -32.6640 C.3       1 UNK0        0.0000
     29 C          19.6409   -2.0828  -32.5421 C.3       1 UNK0        0.0000
     30 O          19.0231   -3.2737  -32.0239 O.3       1 UNK0        0.0000
     31 C          19.3490   -0.9454  -31.5445 C.3       1 UNK0        0.0000
     32 O          18.6359    0.1130  -32.1881 O.3       1 UNK0        0.0000
     33 C          18.4686   -1.6087  -30.4575 C.3       1 UNK0        0.0000
     34 O          17.4094   -0.7380  -30.0575 O.3       1 UNK0        0.0000
     35 C          17.9138   -2.8490  -31.2023 C.3       1 UNK0        0.0000
     36 N          17.5452   -3.9008  -30.2512 N.pl3     1 UNK0        0.0000
     37 C          18.4819   -4.4418  -29.5013 C.2       1 UNK0        0.0000
     38 C          18.1662   -5.4468  -28.5853 C.2       1 UNK0        0.0000
     39 C          19.2174   -6.0538  -27.7430 C.2       1 UNK0        0.0000
     40 O          18.9142   -6.8281  -26.8580 O.co2     1 UNK0        0.0000
     41 C          16.8355   -5.8703  -28.4785 C.2       1 UNK0        0.0000
     42 C          15.8888   -5.2688  -29.2895 C.2       1 UNK0        0.0000
     43 C          16.2824   -4.2761  -30.1683 C.2       1 UNK0        0.0000
     44 P          25.8256   -1.4460  -26.3455 P.3       1 UNK0        0.0000
     45 O          26.0580   -0.3921  -25.3317 O.co2     1 UNK0        0.0000
     46 O          24.6171   -1.0036  -27.3123 O.co2     1 UNK0        0.0000
     47 O          25.4464   -2.8259  -25.6076 O.co2     1 UNK0        0.0000
     48 O          20.5115   -5.7466  -27.9558 O.co2     1 UNK0        0.0000
     49 H          26.6047   -2.7017  -32.7980 H         1 UNK0        0.0000
     50 H          26.6166   -1.0442  -32.1502 H         1 UNK0        0.0000
     51 H          27.2076   -3.6497  -30.7504 H         1 UNK0        0.0000
     52 H          25.3801   -1.6278  -29.7027 H         1 UNK0        0.0000
     53 H          26.5579   -4.0901  -28.7674 H         1 UNK0        0.0000
     54 H          27.0533   -0.2695  -28.7685 H         1 UNK0        0.0000
     55 H          28.9656   -2.6716  -28.7431 H         1 UNK0        0.0000
     56 H          30.8996   -1.5252  -27.4653 H         1 UNK0        0.0000
     57 H          32.6796    2.8562  -28.4591 H         1 UNK0        0.0000
     58 H          32.2775    4.1229  -29.4864 H         1 UNK0        0.0000
     59 H          28.5544    2.7792  -31.7517 H         1 UNK0        0.0000
     60 H          21.5212   -2.8031  -31.7757 H         1 UNK0        0.0000
     61 H          21.6455   -1.3253  -32.7603 H         1 UNK0        0.0000
     62 H          19.2195   -1.8410  -33.5175 H         1 UNK0        0.0000
     63 H          20.2757   -0.5717  -31.1097 H         1 UNK0        0.0000
     64 H          18.8251    0.1965  -33.1330 H         1 UNK0        0.0000
     65 H          19.0701   -1.9071  -29.5989 H         1 UNK0        0.0000
     66 H          16.7641   -0.5563  -30.7555 H         1 UNK0        0.0000
     67 H          17.0603   -2.5755  -31.8225 H         1 UNK0        0.0000
     68 H          19.5045   -4.1060  -29.5962 H         1 UNK0        0.0000
     69 H          16.5550   -6.6457  -27.7807 H         1 UNK0        0.0000
     70 H          14.8531   -5.5698  -29.2344 H         1 UNK0        0.0000
     71 H          15.5453   -3.8019  -30.7988 H         1 UNK0        0.0000
@<TRIPOS>BOND
     1    1    2 1
     2    1    3 2
     3    1    4 1
     4    1   23 1
     5    4    5 1
     6    5    6 1
     7    5   49 1
     8    5   50 1
     9    6    7 1
    10    6    8 1
    11    6   51 1
    12    7   12 1
    13    8    9 1
    14    8   10 1
    15    8   52 1
    16    9   53 1
    17   10   11 1
    18   10   12 1
    19   10   54 1
    20   11   44 1
    21   12   13 1
    22   12   55 1
    23   13   14 ar
    24   13   22 ar
    25   14   15 ar
    26   14   56 1
    27   15   16 ar
    28   16   17 ar
    29   16   22 ar
    30   17   18 1
    31   17   19 ar
    32   18   57 1
    33   18   58 1
    34   19   20 ar
    35   20   21 ar
    36   20   59 1
    37   21   22 ar
    38   23   24 1
    39   24   25 1
    40   24   26 2
    41   24   27 1
    42   27   28 1
    43   28   29 1
    44   28   60 1
    45   28   61 1
    46   29   30 1
    47   29   31 1
    48   29   62 1
    49   30   35 1
    50   31   32 1
    51   31   33 1
    52   31   63 1
    53   32   64 1
    54   33   34 1
    55   33   35 1
    56   33   65 1
    57   34   66 1
    58   35   36 1
    59   35   67 1
    60   36   37 ar
    61   36   43 ar
    62   37   38 ar
    63   37   68 1
    64   38   39 1
    65   38   41 ar
    66   39   40 ar
    67   39   48 ar
    68   41   42 ar
    69   41   69 1
    70   42   43 ar
    71   42   70 1
    72   43   71 1
    73   44   45 1
    74   44   46 1
    75   44   47 2
@<TRIPOS>SUBSTRUCTURE
1 UNK0 1
@<TRIPOS>COMMENT
NAADP
PLANTSmolcadARTstart hb
PLANTSmolcadARTstart HB
LINES
16.7641 -0.55635 -30.7555 15.941 0.628 -32.047 0 255 0 5
PLANTSmolcadARTstart HBCH
LINES
PLANTSmolcadARTstart HB-CHO
LINES
PLANTSmolcadARTend
PLANTSmolcadARTstart HB_WATER
LINES
PLANTSmolcadARTend

PLANTSmolcadARTend

