@<TRIPOS>MOLECULE
NAADP_entry_00001_conf_631
71 75 1
SMALL
NO_CHARGES


@<TRIPOS>ATOM
      1 P          11.1818   -0.9094  -32.2594 P.3       1 UNK0        0.0000
      2 O          10.1752    0.0923  -31.8435 O.co2     1 UNK0        0.0000
      3 O          12.2556   -0.2162  -33.2385 O.co2     1 UNK0        0.0000
      4 O          11.9354   -1.4858  -30.9582 O.3       1 UNK0        0.0000
      5 C          12.4008   -0.6518  -29.8956 C.3       1 UNK0        0.0000
      6 C          13.9134   -0.4630  -30.0212 C.3       1 UNK0        0.0000
      7 O          14.4434    0.0662  -28.7942 O.3       1 UNK0        0.0000
      8 C          14.5934   -1.8251  -30.2630 C.3       1 UNK0        0.0000
      9 O          15.2949   -1.8189  -31.5087 O.3       1 UNK0        0.0000
     10 C          15.5843   -1.9704  -29.0830 C.3       1 UNK0        0.0000
     11 O          16.8270   -2.5187  -29.5252 O.3       1 UNK0        0.0000
     12 C          15.7614   -0.4992  -28.6254 C.3       1 UNK0        0.0000
     13 N          16.1703   -0.4433  -27.2198 N.2       1 UNK0        0.0000
     14 C          15.8646    0.5422  -26.3292 C.2       1 UNK0        0.0000
     15 N          16.3901    0.2726  -25.1690 N.2       1 UNK0        0.0000
     16 C          17.0655   -0.8993  -25.2420 C.2       1 UNK0        0.0000
     17 C          17.8121   -1.6682  -24.3324 C.2       1 UNK0        0.0000
     18 N          17.9774   -1.2530  -23.0231 N.pl3     1 UNK0        0.0000
     19 N          18.3547   -2.8029  -24.7602 N.2       1 UNK0        0.0000
     20 C          18.2022   -3.2080  -26.0082 C.2       1 UNK0        0.0000
     21 N          17.5131   -2.5207  -26.8932 N.2       1 UNK0        0.0000
     22 C          16.9282   -1.3756  -26.5565 C.2       1 UNK0        0.0000
     23 O          10.4495   -2.1163  -33.0343 O.3       1 UNK0        0.0000
     24 P          10.4372   -2.6194  -34.5635 P.3       1 UNK0        0.0000
     25 O           8.9807   -2.8852  -35.0059 O.co2     1 UNK0        0.0000
     26 O          11.0594   -1.5335  -35.4682 O.co2     1 UNK0        0.0000
     27 O          11.2919   -3.9774  -34.6886 O.3       1 UNK0        0.0000
     28 C          10.8816   -5.0841  -35.4947 C.3       1 UNK0        0.0000
     29 C          11.4204   -4.9072  -36.9155 C.3       1 UNK0        0.0000
     30 O          11.8774   -3.5560  -37.0995 O.3       1 UNK0        0.0000
     31 C          12.6321   -5.8332  -37.1352 C.3       1 UNK0        0.0000
     32 O          12.3760   -6.7458  -38.2050 O.3       1 UNK0        0.0000
     33 C          13.7848   -4.8701  -37.5094 C.3       1 UNK0        0.0000
     34 O          14.5808   -5.4125  -38.5640 O.3       1 UNK0        0.0000
     35 C          13.0147   -3.6135  -37.9878 C.3       1 UNK0        0.0000
     36 N          13.8427   -2.4135  -37.8426 N.pl3     1 UNK0        0.0000
     37 C          14.8934   -2.2634  -38.6210 C.2       1 UNK0        0.0000
     38 C          15.7045   -1.1329  -38.5092 C.2       1 UNK0        0.0000
     39 C          16.8836   -0.9639  -39.3833 C.2       1 UNK0        0.0000
     40 O          17.5376    0.0579  -39.3295 O.co2     1 UNK0        0.0000
     41 C          15.3817   -0.1612  -37.5536 C.2       1 UNK0        0.0000
     42 C          14.2662   -0.3667  -36.7604 C.2       1 UNK0        0.0000
     43 C          13.5114   -1.5119  -36.9371 C.2       1 UNK0        0.0000
     44 P          17.0473   -4.0921  -29.7890 P.3       1 UNK0        0.0000
     45 O          16.9663   -4.3641  -31.2423 O.co2     1 UNK0        0.0000
     46 O          18.4956   -4.5308  -29.2408 O.co2     1 UNK0        0.0000
     47 O          15.9057   -4.9296  -29.0223 O.co2     1 UNK0        0.0000
     48 O          17.2315   -1.9425  -40.2410 O.co2     1 UNK0        0.0000
     49 H          11.9069    0.3185  -29.9522 H         1 UNK0        0.0000
     50 H          12.1709   -1.1202  -28.9385 H         1 UNK0        0.0000
     51 H          14.1357    0.2158  -30.8442 H         1 UNK0        0.0000
     52 H          13.8565   -2.6280  -30.2438 H         1 UNK0        0.0000
     53 H          16.1867   -1.4502  -31.4570 H         1 UNK0        0.0000
     54 H          15.1550   -2.5770  -28.2871 H         1 UNK0        0.0000
     55 H          16.4845    0.0151  -29.2570 H         1 UNK0        0.0000
     56 H          15.2724    1.4181  -26.5520 H         1 UNK0        0.0000
     57 H          17.5756   -0.4224  -22.7232 H         1 UNK0        0.0000
     58 H          18.4940   -1.7923  -22.4050 H         1 UNK0        0.0000
     59 H          18.6615   -4.1369  -26.3132 H         1 UNK0        0.0000
     60 H          11.2723   -6.0075  -35.0693 H         1 UNK0        0.0000
     61 H           9.7924   -5.1282  -35.5225 H         1 UNK0        0.0000
     62 H          10.6394   -5.1362  -37.6402 H         1 UNK0        0.0000
     63 H          12.8693   -6.3752  -36.2201 H         1 UNK0        0.0000
     64 H          12.0229   -6.3275  -39.0025 H         1 UNK0        0.0000
     65 H          14.3990   -4.6419  -36.6383 H         1 UNK0        0.0000
     66 H          14.0666   -5.8034  -39.2845 H         1 UNK0        0.0000
     67 H          12.6883   -3.7323  -39.0209 H         1 UNK0        0.0000
     68 H          15.1309   -3.0225  -39.3524 H         1 UNK0        0.0000
     69 H          15.9871    0.7261  -37.4391 H         1 UNK0        0.0000
     70 H          13.9869    0.3612  -36.0130 H         1 UNK0        0.0000
     71 H          12.6381   -1.6726  -36.3229 H         1 UNK0        0.0000
@<TRIPOS>BOND
     1    1    2 1
     2    1    3 2
     3    1    4 1
     4    1   23 1
     5    4    5 1
     6    5    6 1
     7    5   49 1
     8    5   50 1
     9    6    7 1
    10    6    8 1
    11    6   51 1
    12    7   12 1
    13    8    9 1
    14    8   10 1
    15    8   52 1
    16    9   53 1
    17   10   11 1
    18   10   12 1
    19   10   54 1
    20   11   44 1
    21   12   13 1
    22   12   55 1
    23   13   14 ar
    24   13   22 ar
    25   14   15 ar
    26   14   56 1
    27   15   16 ar
    28   16   17 ar
    29   16   22 ar
    30   17   18 1
    31   17   19 ar
    32   18   57 1
    33   18   58 1
    34   19   20 ar
    35   20   21 ar
    36   20   59 1
    37   21   22 ar
    38   23   24 1
    39   24   25 1
    40   24   26 2
    41   24   27 1
    42   27   28 1
    43   28   29 1
    44   28   60 1
    45   28   61 1
    46   29   30 1
    47   29   31 1
    48   29   62 1
    49   30   35 1
    50   31   32 1
    51   31   33 1
    52   31   63 1
    53   32   64 1
    54   33   34 1
    55   33   35 1
    56   33   65 1
    57   34   66 1
    58   35   36 1
    59   35   67 1
    60   36   37 ar
    61   36   43 ar
    62   37   38 ar
    63   37   68 1
    64   38   39 1
    65   38   41 ar
    66   39   40 ar
    67   39   48 ar
    68   41   42 ar
    69   41   69 1
    70   42   43 ar
    71   42   70 1
    72   43   71 1
    73   44   45 1
    74   44   46 1
    75   44   47 2
@<TRIPOS>SUBSTRUCTURE
1 UNK0 1
@<TRIPOS>COMMENT
NAADP
PLANTSmolcadARTstart hb
PLANTSmolcadARTstart HB
LINES
PLANTSmolcadARTstart HBCH
LINES
PLANTSmolcadARTstart HB-CHO
LINES
15.2724 1.41812 -26.552 14.246 3.076 -26.191 0 255 255 5
PLANTSmolcadARTend
PLANTSmolcadARTstart HB_WATER
LINES
PLANTSmolcadARTend

PLANTSmolcadARTend

