@<TRIPOS>MOLECULE
NAADP_entry_00001_conf_772
71 75 1
SMALL
NO_CHARGES


@<TRIPOS>ATOM
      1 P          21.0402   22.7024  -43.1321 P.3       1 UNK0        0.0000
      2 O          21.9087   23.5856  -43.9416 O.co2     1 UNK0        0.0000
      3 O          21.6796   21.2259  -43.0766 O.co2     1 UNK0        0.0000
      4 O          20.9185   23.2913  -41.6383 O.3       1 UNK0        0.0000
      5 C          20.3744   24.5811  -41.3526 C.3       1 UNK0        0.0000
      6 C          20.5324   24.8819  -39.8612 C.3       1 UNK0        0.0000
      7 O          20.0710   26.2140  -39.5797 O.3       1 UNK0        0.0000
      8 C          19.6628   23.9129  -39.0360 C.3       1 UNK0        0.0000
      9 O          20.4776   23.1420  -38.1497 O.3       1 UNK0        0.0000
     10 C          18.7162   24.8393  -38.2352 C.3       1 UNK0        0.0000
     11 O          18.5567   24.3701  -36.8955 O.3       1 UNK0        0.0000
     12 C          19.4832   26.1869  -38.2610 C.3       1 UNK0        0.0000
     13 N          18.5579   27.3090  -38.0857 N.2       1 UNK0        0.0000
     14 C          17.8565   27.6073  -36.9557 C.2       1 UNK0        0.0000
     15 N          17.1308   28.6707  -37.1498 N.2       1 UNK0        0.0000
     16 C          17.3193   29.1198  -38.4137 C.2       1 UNK0        0.0000
     17 C          16.8156   30.1951  -39.1660 C.2       1 UNK0        0.0000
     18 N          15.9095   31.0827  -38.6135 N.pl3     1 UNK0        0.0000
     19 N          17.2307   30.3388  -40.4198 N.2       1 UNK0        0.0000
     20 C          18.0959   29.4969  -40.9561 C.2       1 UNK0        0.0000
     21 N          18.5925   28.4769  -40.2903 N.2       1 UNK0        0.0000
     22 C          18.2409   28.2554  -39.0276 C.2       1 UNK0        0.0000
     23 O          19.5771   22.6289  -43.8010 O.3       1 UNK0        0.0000
     24 P          18.5469   23.7317  -44.3614 P.3       1 UNK0        0.0000
     25 O          18.9277   25.1218  -43.8041 O.co2     1 UNK0        0.0000
     26 O          18.6119   23.7608  -45.9041 O.co2     1 UNK0        0.0000
     27 O          17.0531   23.3574  -43.8937 O.3       1 UNK0        0.0000
     28 C          16.4060   22.1362  -44.2585 C.3       1 UNK0        0.0000
     29 C          15.0476   22.0508  -43.5599 C.3       1 UNK0        0.0000
     30 O          14.4081   20.8048  -43.8868 O.3       1 UNK0        0.0000
     31 C          15.2421   22.0775  -42.0316 C.3       1 UNK0        0.0000
     32 O          14.5662   23.2005  -41.4615 O.3       1 UNK0        0.0000
     33 C          14.6023   20.7552  -41.5430 C.3       1 UNK0        0.0000
     34 O          13.8595   20.9616  -40.3407 O.3       1 UNK0        0.0000
     35 C          13.6609   20.3965  -42.7202 C.3       1 UNK0        0.0000
     36 N          13.4015   18.9549  -42.7536 N.pl3     1 UNK0        0.0000
     37 C          12.1574   18.5277  -42.7066 C.2       1 UNK0        0.0000
     38 C          11.8741   17.1611  -42.7356 C.2       1 UNK0        0.0000
     39 C          10.4776   16.6814  -42.6834 C.2       1 UNK0        0.0000
     40 O           9.5631   17.4792  -42.6400 O.co2     1 UNK0        0.0000
     41 C          12.9365   16.2520  -42.8147 C.2       1 UNK0        0.0000
     42 C          14.2259   16.7529  -42.8622 C.2       1 UNK0        0.0000
     43 C          14.4222   18.1216  -42.8338 C.2       1 UNK0        0.0000
     44 P          17.7945   22.9990  -36.5310 P.3       1 UNK0        0.0000
     45 O          17.6592   22.8864  -35.0607 O.co2     1 UNK0        0.0000
     46 O          16.3331   23.0015  -37.2057 O.co2     1 UNK0        0.0000
     47 O          18.6423   21.7492  -37.0889 O.co2     1 UNK0        0.0000
     48 O          10.2196   15.3593  -42.6821 O.co2     1 UNK0        0.0000
     49 H          20.9040   25.3360  -41.9342 H         1 UNK0        0.0000
     50 H          19.3169   24.5963  -41.6166 H         1 UNK0        0.0000
     51 H          21.5782   24.7829  -39.5713 H         1 UNK0        0.0000
     52 H          19.0905   23.2593  -39.6943 H         1 UNK0        0.0000
     53 H          20.0564   22.9379  -37.3042 H         1 UNK0        0.0000
     54 H          17.7508   24.9309  -38.7308 H         1 UNK0        0.0000
     55 H          20.2569   26.2032  -37.4945 H         1 UNK0        0.0000
     56 H          17.8970   27.0454  -36.0336 H         1 UNK0        0.0000
     57 H          15.6146   30.9668  -37.6965 H         1 UNK0        0.0000
     58 H          15.5697   31.8208  -39.1422 H         1 UNK0        0.0000
     59 H          18.4056   29.6512  -41.9794 H         1 UNK0        0.0000
     60 H          16.2628   22.1098  -45.3379 H         1 UNK0        0.0000
     61 H          17.0251   21.2924  -43.9524 H         1 UNK0        0.0000
     62 H          14.4172   22.8837  -43.8704 H         1 UNK0        0.0000
     63 H          16.3025   22.1036  -41.7821 H         1 UNK0        0.0000
     64 H          13.6060   23.0961  -41.4090 H         1 UNK0        0.0000
     65 H          15.3608   19.9851  -41.4026 H         1 UNK0        0.0000
     66 H          12.9259   21.1708  -40.4856 H         1 UNK0        0.0000
     67 H          12.7266   20.9534  -42.6493 H         1 UNK0        0.0000
     68 H          11.3482   19.2410  -42.6438 H         1 UNK0        0.0000
     69 H          12.7545   15.1875  -42.8390 H         1 UNK0        0.0000
     70 H          15.0698   16.0817  -42.9236 H         1 UNK0        0.0000
     71 H          15.4266   18.5152  -42.8754 H         1 UNK0        0.0000
@<TRIPOS>BOND
     1    1    2 1
     2    1    3 2
     3    1    4 1
     4    1   23 1
     5    4    5 1
     6    5    6 1
     7    5   49 1
     8    5   50 1
     9    6    7 1
    10    6    8 1
    11    6   51 1
    12    7   12 1
    13    8    9 1
    14    8   10 1
    15    8   52 1
    16    9   53 1
    17   10   11 1
    18   10   12 1
    19   10   54 1
    20   11   44 1
    21   12   13 1
    22   12   55 1
    23   13   14 ar
    24   13   22 ar
    25   14   15 ar
    26   14   56 1
    27   15   16 ar
    28   16   17 ar
    29   16   22 ar
    30   17   18 1
    31   17   19 ar
    32   18   57 1
    33   18   58 1
    34   19   20 ar
    35   20   21 ar
    36   20   59 1
    37   21   22 ar
    38   23   24 1
    39   24   25 1
    40   24   26 2
    41   24   27 1
    42   27   28 1
    43   28   29 1
    44   28   60 1
    45   28   61 1
    46   29   30 1
    47   29   31 1
    48   29   62 1
    49   30   35 1
    50   31   32 1
    51   31   33 1
    52   31   63 1
    53   32   64 1
    54   33   34 1
    55   33   35 1
    56   33   65 1
    57   34   66 1
    58   35   36 1
    59   35   67 1
    60   36   37 ar
    61   36   43 ar
    62   37   38 ar
    63   37   68 1
    64   38   39 1
    65   38   41 ar
    66   39   40 ar
    67   39   48 ar
    68   41   42 ar
    69   41   69 1
    70   42   43 ar
    71   42   70 1
    72   43   71 1
    73   44   45 1
    74   44   46 1
    75   44   47 2
@<TRIPOS>SUBSTRUCTURE
1 UNK0 1
@<TRIPOS>COMMENT
NAADP
PLANTSmolcadARTstart hb
PLANTSmolcadARTstart HB
LINES
PLANTSmolcadARTstart HBCH
LINES
PLANTSmolcadARTstart HB-CHO
LINES
PLANTSmolcadARTend
PLANTSmolcadARTstart HB_WATER
LINES
PLANTSmolcadARTend

PLANTSmolcadARTend

