@<TRIPOS>MOLECULE
NAADP_entry_00001_conf_01
71 75 1
SMALL
NO_CHARGES


@<TRIPOS>ATOM
      1 P          14.2794   -1.9920  -37.9329 P.3       1 UNK0        0.0000
      2 O          13.8604   -3.2036  -38.6720 O.co2     1 UNK0        0.0000
      3 O          15.8199   -2.1403  -37.4892 O.co2     1 UNK0        0.0000
      4 O          14.1157   -0.7009  -38.8813 O.3       1 UNK0        0.0000
      5 C          12.8910   -0.3679  -39.5374 C.3       1 UNK0        0.0000
      6 C          12.6292   -1.3671  -40.6655 C.3       1 UNK0        0.0000
      7 O          11.3899   -1.0500  -41.3214 O.3       1 UNK0        0.0000
      8 C          13.7453   -1.2671  -41.7239 C.3       1 UNK0        0.0000
      9 O          14.4244   -2.5184  -41.8534 O.3       1 UNK0        0.0000
     10 C          12.9977   -0.9174  -43.0332 C.3       1 UNK0        0.0000
     11 O          13.5371   -1.6445  -44.1382 O.3       1 UNK0        0.0000
     12 C          11.5534   -1.3849  -42.7165 C.3       1 UNK0        0.0000
     13 N          10.5847   -0.6558  -43.5388 N.2       1 UNK0        0.0000
     14 C          10.6044   -0.5401  -44.8967 C.2       1 UNK0        0.0000
     15 N           9.5943    0.1770  -45.2972 N.2       1 UNK0        0.0000
     16 C           8.8652    0.5666  -44.2242 C.2       1 UNK0        0.0000
     17 C           7.7017    1.3350  -44.0461 C.2       1 UNK0        0.0000
     18 N           7.0414    1.8821  -45.1318 N.pl3     1 UNK0        0.0000
     19 N           7.2512    1.5228  -42.8104 N.2       1 UNK0        0.0000
     20 C           7.8742    1.0042  -41.7675 C.2       1 UNK0        0.0000
     21 N           8.9659    0.2800  -41.8868 N.2       1 UNK0        0.0000
     22 C           9.4881    0.0327  -43.0839 C.2       1 UNK0        0.0000
     23 O          13.3582   -1.8166  -36.6238 O.3       1 UNK0        0.0000
     24 P          11.8304   -2.1840  -36.2738 P.3       1 UNK0        0.0000
     25 O          10.9162   -1.7482  -37.4409 O.co2     1 UNK0        0.0000
     26 O          11.7024   -3.7083  -36.0619 O.co2     1 UNK0        0.0000
     27 O          11.3879   -1.4159  -34.9305 O.3       1 UNK0        0.0000
     28 C          11.2975    0.0078  -34.8415 C.3       1 UNK0        0.0000
     29 C          10.7270    0.3979  -33.4766 C.3       1 UNK0        0.0000
     30 O           9.4154   -0.1697  -33.3156 O.3       1 UNK0        0.0000
     31 C          11.6140   -0.1757  -32.3549 C.3       1 UNK0        0.0000
     32 O          12.1370    0.8782  -31.5432 O.3       1 UNK0        0.0000
     33 C          10.6556   -1.0693  -31.5306 C.3       1 UNK0        0.0000
     34 O          10.8965   -0.9202  -30.1307 O.3       1 UNK0        0.0000
     35 C           9.2679   -0.4984  -31.9170 C.3       1 UNK0        0.0000
     36 N           8.2237   -1.5096  -31.7331 N.pl3     1 UNK0        0.0000
     37 C           7.7383   -2.1270  -32.7893 C.2       1 UNK0        0.0000
     38 C           6.7422   -3.0952  -32.6508 C.2       1 UNK0        0.0000
     39 C           6.1977   -3.7888  -33.8363 C.2       1 UNK0        0.0000
     40 O           5.3120   -4.6093  -33.7058 O.co2     1 UNK0        0.0000
     41 C           6.2675   -3.3979  -31.3684 C.2       1 UNK0        0.0000
     42 C           6.8116   -2.7204  -30.2910 C.2       1 UNK0        0.0000
     43 C           7.7993   -1.7781  -30.5123 C.2       1 UNK0        0.0000
     44 P          15.0215   -1.3957  -44.7114 P.3       1 UNK0        0.0000
     45 O          15.2991   -2.3641  -45.7966 O.co2     1 UNK0        0.0000
     46 O          15.1299    0.1029  -45.2886 O.co2     1 UNK0        0.0000
     47 O          16.0941   -1.5949  -43.5274 O.co2     1 UNK0        0.0000
     48 O           6.6851   -3.5120  -35.0611 O.co2     1 UNK0        0.0000
     49 H          12.0717   -0.4067  -38.8192 H         1 UNK0        0.0000
     50 H          12.9624    0.6379  -39.9517 H         1 UNK0        0.0000
     51 H          12.5871   -2.3789  -40.2628 H         1 UNK0        0.0000
     52 H          14.4486   -0.4763  -41.4630 H         1 UNK0        0.0000
     53 H          15.1638   -2.5031  -42.4755 H         1 UNK0        0.0000
     54 H          13.0274    0.1544  -43.2236 H         1 UNK0        0.0000
     55 H          11.4553   -2.4590  -42.8684 H         1 UNK0        0.0000
     56 H          11.3479   -0.9793  -45.5463 H         1 UNK0        0.0000
     57 H           7.3806    1.7371  -46.0292 H         1 UNK0        0.0000
     58 H           6.2395    2.4096  -44.9962 H         1 UNK0        0.0000
     59 H           7.4733    1.1829  -40.7805 H         1 UNK0        0.0000
     60 H          12.2892    0.4426  -34.9595 H         1 UNK0        0.0000
     61 H          10.6409    0.3793  -35.6288 H         1 UNK0        0.0000
     62 H          10.6741    1.4831  -33.3925 H         1 UNK0        0.0000
     63 H          12.4240   -0.7710  -32.7755 H         1 UNK0        0.0000
     64 H          11.4585    1.4349  -31.1368 H         1 UNK0        0.0000
     65 H          10.7439   -2.1136  -31.8300 H         1 UNK0        0.0000
     66 H          10.4875   -0.1339  -29.7422 H         1 UNK0        0.0000
     67 H           9.0438    0.3954  -31.3348 H         1 UNK0        0.0000
     68 H           8.1132   -1.8815  -33.7726 H         1 UNK0        0.0000
     69 H           5.4973   -4.1413  -31.2238 H         1 UNK0        0.0000
     70 H           6.4700   -2.9278  -29.2876 H         1 UNK0        0.0000
     71 H           8.2287   -1.2515  -29.6733 H         1 UNK0        0.0000
@<TRIPOS>BOND
     1    1    2 1
     2    1    3 2
     3    1    4 1
     4    1   23 1
     5    4    5 1
     6    5    6 1
     7    5   49 1
     8    5   50 1
     9    6    7 1
    10    6    8 1
    11    6   51 1
    12    7   12 1
    13    8    9 1
    14    8   10 1
    15    8   52 1
    16    9   53 1
    17   10   11 1
    18   10   12 1
    19   10   54 1
    20   11   44 1
    21   12   13 1
    22   12   55 1
    23   13   14 ar
    24   13   22 ar
    25   14   15 ar
    26   14   56 1
    27   15   16 ar
    28   16   17 ar
    29   16   22 ar
    30   17   18 1
    31   17   19 ar
    32   18   57 1
    33   18   58 1
    34   19   20 ar
    35   20   21 ar
    36   20   59 1
    37   21   22 ar
    38   23   24 1
    39   24   25 1
    40   24   26 2
    41   24   27 1
    42   27   28 1
    43   28   29 1
    44   28   60 1
    45   28   61 1
    46   29   30 1
    47   29   31 1
    48   29   62 1
    49   30   35 1
    50   31   32 1
    51   31   33 1
    52   31   63 1
    53   32   64 1
    54   33   34 1
    55   33   35 1
    56   33   65 1
    57   34   66 1
    58   35   36 1
    59   35   67 1
    60   36   37 ar
    61   36   43 ar
    62   37   38 ar
    63   37   68 1
    64   38   39 1
    65   38   41 ar
    66   39   40 ar
    67   39   48 ar
    68   41   42 ar
    69   41   69 1
    70   42   43 ar
    71   42   70 1
    72   43   71 1
    73   44   45 1
    74   44   46 1
    75   44   47 2
@<TRIPOS>SUBSTRUCTURE
1 UNK0 1
@<TRIPOS>COMMENT
NAADP
PLANTSmolcadARTstart hb
PLANTSmolcadARTstart HB
LINES
11.4585 1.43494 -31.1368 10.958 2.961 -29.975 0 255 0 5
10.4875 -0.133927 -29.7422 9.61 1.573 -28.958 0 255 0 5
PLANTSmolcadARTstart HBCH
LINES
PLANTSmolcadARTstart HB-CHO
LINES
PLANTSmolcadARTend
PLANTSmolcadARTstart HB_WATER
LINES
PLANTSmolcadARTend

PLANTSmolcadARTend

