@<TRIPOS>MOLECULE
NAADP_entry_00001_conf_145
71 75 1
SMALL
NO_CHARGES


@<TRIPOS>ATOM
      1 P          24.4746   -4.9521  -31.8549 P.3       1 UNK0        0.0000
      2 O          25.2928   -6.0703  -32.3742 O.co2     1 UNK0        0.0000
      3 O          23.8130   -5.3787  -30.4504 O.co2     1 UNK0        0.0000
      4 O          25.4090   -3.6587  -31.6373 O.3       1 UNK0        0.0000
      5 C          25.2814   -2.7873  -30.5122 C.3       1 UNK0        0.0000
      6 C          26.3028   -1.6545  -30.6266 C.3       1 UNK0        0.0000
      7 O          26.4392   -0.9896  -29.3594 O.3       1 UNK0        0.0000
      8 C          27.6853   -2.2301  -30.9920 C.3       1 UNK0        0.0000
      9 O          28.1389   -1.6890  -32.2350 O.3       1 UNK0        0.0000
     10 C          28.6053   -1.7745  -29.8338 C.3       1 UNK0        0.0000
     11 O          29.8780   -1.3550  -30.3284 O.3       1 UNK0        0.0000
     12 C          27.8176   -0.5742  -29.2473 C.3       1 UNK0        0.0000
     13 N          28.1786   -0.3583  -27.8440 N.2       1 UNK0        0.0000
     14 C          29.3221    0.2249  -27.3857 C.2       1 UNK0        0.0000
     15 N          29.3160    0.2545  -26.0841 N.2       1 UNK0        0.0000
     16 C          28.1717   -0.3074  -25.6263 C.2       1 UNK0        0.0000
     17 C          27.6302   -0.5490  -24.3518 C.2       1 UNK0        0.0000
     18 N          28.3161   -0.1775  -23.2092 N.pl3     1 UNK0        0.0000
     19 N          26.4442   -1.1422  -24.2710 N.2       1 UNK0        0.0000
     20 C          25.7815   -1.5001  -25.3561 C.2       1 UNK0        0.0000
     21 N          26.2498   -1.2948  -26.5681 N.2       1 UNK0        0.0000
     22 C          27.4258   -0.7022  -26.7493 C.2       1 UNK0        0.0000
     23 O          23.3113   -4.6021  -32.9119 O.3       1 UNK0        0.0000
     24 P          23.3003   -3.9935  -34.4023 P.3       1 UNK0        0.0000
     25 O          21.8405   -3.8480  -34.8878 O.co2     1 UNK0        0.0000
     26 O          23.9815   -2.6076  -34.3980 O.co2     1 UNK0        0.0000
     27 O          24.0982   -4.9813  -35.3912 O.3       1 UNK0        0.0000
     28 C          23.5105   -6.1518  -35.9635 C.3       1 UNK0        0.0000
     29 C          22.9574   -5.8182  -37.3504 C.3       1 UNK0        0.0000
     30 O          22.0572   -4.7002  -37.2609 O.3       1 UNK0        0.0000
     31 C          24.1083   -5.4044  -38.2875 C.3       1 UNK0        0.0000
     32 O          24.1814   -6.2873  -39.4091 O.3       1 UNK0        0.0000
     33 C          23.7302   -3.9753  -38.7472 C.3       1 UNK0        0.0000
     34 O          24.0103   -3.7953  -40.1361 O.3       1 UNK0        0.0000
     35 C          22.2039   -3.9429  -38.4819 C.3       1 UNK0        0.0000
     36 N          21.7415   -2.5656  -38.2923 N.pl3     1 UNK0        0.0000
     37 C          21.2349   -2.2155  -37.1290 C.2       1 UNK0        0.0000
     38 C          20.7840   -0.9120  -36.9139 C.2       1 UNK0        0.0000
     39 C          20.2159   -0.5187  -35.6080 C.2       1 UNK0        0.0000
     40 O          19.8092    0.6130  -35.4391 O.co2     1 UNK0        0.0000
     41 C          20.8790    0.0169  -37.9578 C.2       1 UNK0        0.0000
     42 C          21.4199   -0.4019  -39.1610 C.2       1 UNK0        0.0000
     43 C          21.8483   -1.7102  -39.2920 C.2       1 UNK0        0.0000
     44 P          30.9430   -2.3706  -30.9828 P.3       1 UNK0        0.0000
     45 O          32.1978   -1.6434  -31.2815 O.co2     1 UNK0        0.0000
     46 O          31.2487   -3.5668  -29.9501 O.co2     1 UNK0        0.0000
     47 O          30.3377   -2.9780  -32.3455 O.co2     1 UNK0        0.0000
     48 O          20.1510   -1.4151  -34.6047 O.co2     1 UNK0        0.0000
     49 H          24.2749   -2.3690  -30.4888 H         1 UNK0        0.0000
     50 H          25.4620   -3.3486  -29.5953 H         1 UNK0        0.0000
     51 H          25.9832   -0.9419  -31.3866 H         1 UNK0        0.0000
     52 H          27.6444   -3.3182  -31.0416 H         1 UNK0        0.0000
     53 H          28.6651   -2.3034  -32.7639 H         1 UNK0        0.0000
     54 H          28.7190   -2.5649  -29.0935 H         1 UNK0        0.0000
     55 H          27.9970    0.3262  -29.8333 H         1 UNK0        0.0000
     56 H          30.1168    0.6076  -28.0099 H         1 UNK0        0.0000
     57 H          29.1814    0.2553  -23.2819 H         1 UNK0        0.0000
     58 H          27.9319   -0.3489  -22.3358 H         1 UNK0        0.0000
     59 H          24.8205   -1.9805  -25.2437 H         1 UNK0        0.0000
     60 H          24.2658   -6.9317  -36.0505 H         1 UNK0        0.0000
     61 H          22.6993   -6.5000  -35.3235 H         1 UNK0        0.0000
     62 H          22.4352   -6.6826  -37.7598 H         1 UNK0        0.0000
     63 H          25.0550   -5.3940  -37.7480 H         1 UNK0        0.0000
     64 H          24.6322   -7.1226  -39.2231 H         1 UNK0        0.0000
     65 H          24.2454   -3.2250  -38.1475 H         1 UNK0        0.0000
     66 H          24.5265   -3.0011  -40.3341 H         1 UNK0        0.0000
     67 H          21.6614   -4.4215  -39.2971 H         1 UNK0        0.0000
     68 H          21.1664   -2.9437  -36.3336 H         1 UNK0        0.0000
     69 H          20.5397    1.0341  -37.8270 H         1 UNK0        0.0000
     70 H          21.5088    0.2870  -39.9880 H         1 UNK0        0.0000
     71 H          22.2749   -2.0384  -40.2279 H         1 UNK0        0.0000
@<TRIPOS>BOND
     1    1    2 1
     2    1    3 2
     3    1    4 1
     4    1   23 1
     5    4    5 1
     6    5    6 1
     7    5   49 1
     8    5   50 1
     9    6    7 1
    10    6    8 1
    11    6   51 1
    12    7   12 1
    13    8    9 1
    14    8   10 1
    15    8   52 1
    16    9   53 1
    17   10   11 1
    18   10   12 1
    19   10   54 1
    20   11   44 1
    21   12   13 1
    22   12   55 1
    23   13   14 ar
    24   13   22 ar
    25   14   15 ar
    26   14   56 1
    27   15   16 ar
    28   16   17 ar
    29   16   22 ar
    30   17   18 1
    31   17   19 ar
    32   18   57 1
    33   18   58 1
    34   19   20 ar
    35   20   21 ar
    36   20   59 1
    37   21   22 ar
    38   23   24 1
    39   24   25 1
    40   24   26 2
    41   24   27 1
    42   27   28 1
    43   28   29 1
    44   28   60 1
    45   28   61 1
    46   29   30 1
    47   29   31 1
    48   29   62 1
    49   30   35 1
    50   31   32 1
    51   31   33 1
    52   31   63 1
    53   32   64 1
    54   33   34 1
    55   33   35 1
    56   33   65 1
    57   34   66 1
    58   35   36 1
    59   35   67 1
    60   36   37 ar
    61   36   43 ar
    62   37   38 ar
    63   37   68 1
    64   38   39 1
    65   38   41 ar
    66   39   40 ar
    67   39   48 ar
    68   41   42 ar
    69   41   69 1
    70   42   43 ar
    71   42   70 1
    72   43   71 1
    73   44   45 1
    74   44   46 1
    75   44   47 2
@<TRIPOS>SUBSTRUCTURE
1 UNK0 1
@<TRIPOS>COMMENT
NAADP
PLANTSmolcadARTstart hb
PLANTSmolcadARTstart HB
LINES
PLANTSmolcadARTstart HBCH
LINES
PLANTSmolcadARTstart HB-CHO
LINES
PLANTSmolcadARTend
PLANTSmolcadARTstart HB_WATER
LINES
PLANTSmolcadARTend

PLANTSmolcadARTend

