@<TRIPOS>MOLECULE
NAADP_entry_00001_conf_227
71 75 1
SMALL
NO_CHARGES


@<TRIPOS>ATOM
      1 P           7.3687    2.1080  -42.1243 P.3       1 UNK0        0.0000
      2 O           8.2349    3.1829  -41.5914 O.co2     1 UNK0        0.0000
      3 O           7.3829    2.1560  -43.7335 O.co2     1 UNK0        0.0000
      4 O           7.9175    0.6788  -41.6249 O.3       1 UNK0        0.0000
      5 C           7.9830    0.3091  -40.2464 C.3       1 UNK0        0.0000
      6 C           8.7028   -1.0338  -40.1125 C.3       1 UNK0        0.0000
      7 O           9.8229   -1.0798  -41.0124 O.3       1 UNK0        0.0000
      8 C           9.2579   -1.1908  -38.6831 C.3       1 UNK0        0.0000
      9 O           8.6897   -2.3396  -38.0500 O.3       1 UNK0        0.0000
     10 C          10.7807   -1.3801  -38.8851 C.3       1 UNK0        0.0000
     11 O          11.2910   -2.3828  -38.0049 O.3       1 UNK0        0.0000
     12 C          10.8559   -1.8504  -40.3609 C.3       1 UNK0        0.0000
     13 N          12.1684   -1.5410  -40.9332 N.2       1 UNK0        0.0000
     14 C          13.3187   -1.3146  -40.2379 C.2       1 UNK0        0.0000
     15 N          14.2962   -1.0692  -41.0620 N.2       1 UNK0        0.0000
     16 C          13.8358   -1.1213  -42.3349 C.2       1 UNK0        0.0000
     17 C          14.4148   -0.9439  -43.6034 C.2       1 UNK0        0.0000
     18 N          15.7592   -0.6440  -43.7324 N.pl3     1 UNK0        0.0000
     19 N          13.6403   -1.0717  -44.6753 N.2       1 UNK0        0.0000
     20 C          12.3558   -1.3585  -44.5625 C.2       1 UNK0        0.0000
     21 N          11.7718   -1.5318  -43.3965 N.2       1 UNK0        0.0000
     22 C          12.4670   -1.4300  -42.2682 C.2       1 UNK0        0.0000
     23 O           5.8629    2.3198  -41.5942 O.3       1 UNK0        0.0000
     24 P           4.4210    1.7975  -42.0837 P.3       1 UNK0        0.0000
     25 O           4.5097    0.2950  -42.4337 O.co2     1 UNK0        0.0000
     26 O           3.3880    2.0024  -40.9542 O.co2     1 UNK0        0.0000
     27 O           3.9641    2.6254  -43.3861 O.3       1 UNK0        0.0000
     28 C           4.4679    3.9260  -43.6983 C.3       1 UNK0        0.0000
     29 C           3.9553    4.3542  -45.0747 C.3       1 UNK0        0.0000
     30 O           4.4146    3.4296  -46.0759 O.3       1 UNK0        0.0000
     31 C           2.4150    4.3204  -45.0936 C.3       1 UNK0        0.0000
     32 O           1.8902    5.6184  -45.3811 O.3       1 UNK0        0.0000
     33 C           2.0696    3.3320  -46.2339 C.3       1 UNK0        0.0000
     34 O           0.9659    3.8084  -47.0052 O.3       1 UNK0        0.0000
     35 C           3.3729    3.3361  -47.0719 C.3       1 UNK0        0.0000
     36 N           3.5005    2.0918  -47.8351 N.pl3     1 UNK0        0.0000
     37 C           4.7006    1.6030  -48.0652 C.2       1 UNK0        0.0000
     38 C           4.8589    0.4201  -48.7894 C.2       1 UNK0        0.0000
     39 C           6.2060   -0.1292  -49.0473 C.2       1 UNK0        0.0000
     40 O           6.3309   -1.1593  -49.6781 O.co2     1 UNK0        0.0000
     41 C           3.7186   -0.2373  -49.2679 C.2       1 UNK0        0.0000
     42 C           2.4799    0.3183  -48.9981 C.2       1 UNK0        0.0000
     43 C           2.4080    1.4912  -48.2690 C.2       1 UNK0        0.0000
     44 P          11.3208   -2.2119  -36.4038 P.3       1 UNK0        0.0000
     45 O           9.9589   -1.8949  -35.9167 O.co2     1 UNK0        0.0000
     46 O          11.8275   -3.5815  -35.7270 O.co2     1 UNK0        0.0000
     47 O          12.3231   -1.0148  -36.0106 O.co2     1 UNK0        0.0000
     48 O           7.2951    0.5119  -48.5809 O.co2     1 UNK0        0.0000
     49 H           8.5293    1.0719  -39.6911 H         1 UNK0        0.0000
     50 H           6.9732    0.2222  -39.8450 H         1 UNK0        0.0000
     51 H           8.0140   -1.8481  -40.3362 H         1 UNK0        0.0000
     52 H           9.0592   -0.2940  -38.0962 H         1 UNK0        0.0000
     53 H           9.3426   -2.9618  -37.7028 H         1 UNK0        0.0000
     54 H          11.3111   -0.4388  -38.7486 H         1 UNK0        0.0000
     55 H          10.6455   -2.9165  -40.4356 H         1 UNK0        0.0000
     56 H          13.4075   -1.3365  -39.1612 H         1 UNK0        0.0000
     57 H          16.3141   -0.5537  -42.9416 H         1 UNK0        0.0000
     58 H          16.1471   -0.5246  -44.6128 H         1 UNK0        0.0000
     59 H          11.7632   -1.4524  -45.4607 H         1 UNK0        0.0000
     60 H           4.1287    4.6368  -42.9459 H         1 UNK0        0.0000
     61 H           5.5580    3.8996  -43.7092 H         1 UNK0        0.0000
     62 H           4.3094    5.3583  -45.3071 H         1 UNK0        0.0000
     63 H           2.0294    3.9553  -44.1420 H         1 UNK0        0.0000
     64 H           2.2748    6.0329  -46.1659 H         1 UNK0        0.0000
     65 H           1.8649    2.3375  -45.8376 H         1 UNK0        0.0000
     66 H           1.1589    3.9098  -47.9480 H         1 UNK0        0.0000
     67 H           3.4001    4.1991  -47.7370 H         1 UNK0        0.0000
     68 H           5.5713    2.1223  -47.6912 H         1 UNK0        0.0000
     69 H           3.8034   -1.1545  -49.8321 H         1 UNK0        0.0000
     70 H           1.5787   -0.1610  -49.3512 H         1 UNK0        0.0000
     71 H           1.4429    1.9243  -48.0532 H         1 UNK0        0.0000
@<TRIPOS>BOND
     1    1    2 1
     2    1    3 2
     3    1    4 1
     4    1   23 1
     5    4    5 1
     6    5    6 1
     7    5   49 1
     8    5   50 1
     9    6    7 1
    10    6    8 1
    11    6   51 1
    12    7   12 1
    13    8    9 1
    14    8   10 1
    15    8   52 1
    16    9   53 1
    17   10   11 1
    18   10   12 1
    19   10   54 1
    20   11   44 1
    21   12   13 1
    22   12   55 1
    23   13   14 ar
    24   13   22 ar
    25   14   15 ar
    26   14   56 1
    27   15   16 ar
    28   16   17 ar
    29   16   22 ar
    30   17   18 1
    31   17   19 ar
    32   18   57 1
    33   18   58 1
    34   19   20 ar
    35   20   21 ar
    36   20   59 1
    37   21   22 ar
    38   23   24 1
    39   24   25 1
    40   24   26 2
    41   24   27 1
    42   27   28 1
    43   28   29 1
    44   28   60 1
    45   28   61 1
    46   29   30 1
    47   29   31 1
    48   29   62 1
    49   30   35 1
    50   31   32 1
    51   31   33 1
    52   31   63 1
    53   32   64 1
    54   33   34 1
    55   33   35 1
    56   33   65 1
    57   34   66 1
    58   35   36 1
    59   35   67 1
    60   36   37 ar
    61   36   43 ar
    62   37   38 ar
    63   37   68 1
    64   38   39 1
    65   38   41 ar
    66   39   40 ar
    67   39   48 ar
    68   41   42 ar
    69   41   69 1
    70   42   43 ar
    71   42   70 1
    72   43   71 1
    73   44   45 1
    74   44   46 1
    75   44   47 2
@<TRIPOS>SUBSTRUCTURE
1 UNK0 1
@<TRIPOS>COMMENT
NAADP
PLANTSmolcadARTstart hb
PLANTSmolcadARTstart HB
LINES
PLANTSmolcadARTstart HBCH
LINES
PLANTSmolcadARTstart HB-CHO
LINES
PLANTSmolcadARTend
PLANTSmolcadARTstart HB_WATER
LINES
PLANTSmolcadARTend

PLANTSmolcadARTend

