@<TRIPOS>MOLECULE
NAADP_entry_00001_conf_231
71 75 1
SMALL
NO_CHARGES


@<TRIPOS>ATOM
      1 P          12.8706   -2.0353  -43.6635 P.3       1 UNK0        0.0000
      2 O          12.3127   -3.4051  -43.6184 O.co2     1 UNK0        0.0000
      3 O          13.8792   -1.9079  -44.9119 O.co2     1 UNK0        0.0000
      4 O          11.6723   -0.9726  -43.8308 O.3       1 UNK0        0.0000
      5 C          11.0401   -0.7040  -45.0836 C.3       1 UNK0        0.0000
      6 C          10.0028    0.4056  -44.9034 C.3       1 UNK0        0.0000
      7 O           9.5394    0.8548  -46.1879 O.3       1 UNK0        0.0000
      8 C           8.7790   -0.1397  -44.1410 C.3       1 UNK0        0.0000
      9 O           8.5879    0.5819  -42.9218 O.3       1 UNK0        0.0000
     10 C           7.5923    0.1002  -45.1053 C.3       1 UNK0        0.0000
     11 O           6.4423    0.5604  -44.3939 O.3       1 UNK0        0.0000
     12 C           8.1485    1.2109  -46.0337 C.3       1 UNK0        0.0000
     13 N           7.4641    1.1893  -47.3288 N.2       1 UNK0        0.0000
     14 C           6.1421    1.4395  -47.5469 C.2       1 UNK0        0.0000
     15 N           5.8724    1.3339  -48.8162 N.2       1 UNK0        0.0000
     16 C           7.0012    1.0089  -49.4907 C.2       1 UNK0        0.0000
     17 C           7.3114    0.7683  -50.8405 C.2       1 UNK0        0.0000
     18 N           6.3344    0.8489  -51.8167 N.pl3     1 UNK0        0.0000
     19 N           8.5651    0.4622  -51.1561 N.2       1 UNK0        0.0000
     20 C           9.5050    0.3833  -50.2313 C.2       1 UNK0        0.0000
     21 N           9.2602    0.5993  -48.9570 N.2       1 UNK0        0.0000
     22 C           8.0369    0.9177  -48.5460 C.2       1 UNK0        0.0000
     23 O          13.6674   -1.7350  -42.2967 O.3       1 UNK0        0.0000
     24 P          13.2737   -1.7920  -40.7368 P.3       1 UNK0        0.0000
     25 O          13.5508   -0.4183  -40.0857 O.co2     1 UNK0        0.0000
     26 O          11.7745   -2.1348  -40.5960 O.co2     1 UNK0        0.0000
     27 O          14.1542   -2.9211  -40.0019 O.3       1 UNK0        0.0000
     28 C          15.5755   -2.8394  -39.8744 C.3       1 UNK0        0.0000
     29 C          16.1157   -4.1648  -39.3339 C.3       1 UNK0        0.0000
     30 O          15.4359   -4.5076  -38.1137 O.3       1 UNK0        0.0000
     31 C          15.8382   -5.2945  -40.3444 C.3       1 UNK0        0.0000
     32 O          17.0632   -5.8917  -40.7749 O.3       1 UNK0        0.0000
     33 C          14.9877   -6.3156  -39.5502 C.3       1 UNK0        0.0000
     34 O          15.3901   -7.6538  -39.8456 O.3       1 UNK0        0.0000
     35 C          15.3255   -5.9473  -38.0836 C.3       1 UNK0        0.0000
     36 N          14.2453   -6.3621  -37.1847 N.pl3     1 UNK0        0.0000
     37 C          12.9970   -6.1531  -37.5459 C.2       1 UNK0        0.0000
     38 C          11.9433   -6.5349  -36.7137 C.2       1 UNK0        0.0000
     39 C          10.5420   -6.3009  -37.1192 C.2       1 UNK0        0.0000
     40 O           9.6336   -6.6497  -36.3927 O.co2     1 UNK0        0.0000
     41 C          12.2372   -7.1436  -35.4870 C.2       1 UNK0        0.0000
     42 C          13.5663   -7.3410  -35.1548 C.2       1 UNK0        0.0000
     43 C          14.5519   -6.9383  -36.0373 C.2       1 UNK0        0.0000
     44 P           5.5575   -0.3942  -43.4453 P.3       1 UNK0        0.0000
     45 O           6.4392   -1.0696  -42.4661 O.co2     1 UNK0        0.0000
     46 O           4.4647    0.4910  -42.6623 O.co2     1 UNK0        0.0000
     47 O           4.8092   -1.4999  -44.3452 O.co2     1 UNK0        0.0000
     48 O          10.2726   -5.7026  -38.2956 O.co2     1 UNK0        0.0000
     49 H          11.7901   -0.3869  -45.8086 H         1 UNK0        0.0000
     50 H          10.5475   -1.6075  -45.4433 H         1 UNK0        0.0000
     51 H          10.4420    1.2390  -44.3555 H         1 UNK0        0.0000
     52 H           8.8983   -1.2043  -43.9398 H         1 UNK0        0.0000
     53 H           8.5841    1.5424  -43.0287 H         1 UNK0        0.0000
     54 H           7.3625   -0.8015  -45.6709 H         1 UNK0        0.0000
     55 H           8.0515    2.1887  -45.5638 H         1 UNK0        0.0000
     56 H           5.4231    1.6899  -46.7800 H         1 UNK0        0.0000
     57 H           5.4226    1.0737  -51.5730 H         1 UNK0        0.0000
     58 H           6.5609    0.6814  -52.7443 H         1 UNK0        0.0000
     59 H          10.5111    0.1306  -50.5327 H         1 UNK0        0.0000
     60 H          16.0164   -2.6370  -40.8496 H         1 UNK0        0.0000
     61 H          15.8320   -2.0348  -39.1846 H         1 UNK0        0.0000
     62 H          17.1868   -4.0826  -39.1510 H         1 UNK0        0.0000
     63 H          15.2786   -4.9138  -41.1984 H         1 UNK0        0.0000
     64 H          17.0000   -6.8426  -40.9406 H         1 UNK0        0.0000
     65 H          13.9256   -6.1769  -39.7516 H         1 UNK0        0.0000
     66 H          16.1896   -7.9366  -39.3795 H         1 UNK0        0.0000
     67 H          16.2709   -6.3979  -37.7816 H         1 UNK0        0.0000
     68 H          12.7858   -5.6808  -38.4945 H         1 UNK0        0.0000
     69 H          11.4472   -7.4517  -34.8179 H         1 UNK0        0.0000
     70 H          13.8305   -7.8074  -34.2172 H         1 UNK0        0.0000
     71 H          15.5894   -7.0953  -35.7828 H         1 UNK0        0.0000
@<TRIPOS>BOND
     1    1    2 1
     2    1    3 2
     3    1    4 1
     4    1   23 1
     5    4    5 1
     6    5    6 1
     7    5   49 1
     8    5   50 1
     9    6    7 1
    10    6    8 1
    11    6   51 1
    12    7   12 1
    13    8    9 1
    14    8   10 1
    15    8   52 1
    16    9   53 1
    17   10   11 1
    18   10   12 1
    19   10   54 1
    20   11   44 1
    21   12   13 1
    22   12   55 1
    23   13   14 ar
    24   13   22 ar
    25   14   15 ar
    26   14   56 1
    27   15   16 ar
    28   16   17 ar
    29   16   22 ar
    30   17   18 1
    31   17   19 ar
    32   18   57 1
    33   18   58 1
    34   19   20 ar
    35   20   21 ar
    36   20   59 1
    37   21   22 ar
    38   23   24 1
    39   24   25 1
    40   24   26 2
    41   24   27 1
    42   27   28 1
    43   28   29 1
    44   28   60 1
    45   28   61 1
    46   29   30 1
    47   29   31 1
    48   29   62 1
    49   30   35 1
    50   31   32 1
    51   31   33 1
    52   31   63 1
    53   32   64 1
    54   33   34 1
    55   33   35 1
    56   33   65 1
    57   34   66 1
    58   35   36 1
    59   35   67 1
    60   36   37 ar
    61   36   43 ar
    62   37   38 ar
    63   37   68 1
    64   38   39 1
    65   38   41 ar
    66   39   40 ar
    67   39   48 ar
    68   41   42 ar
    69   41   69 1
    70   42   43 ar
    71   42   70 1
    72   43   71 1
    73   44   45 1
    74   44   46 1
    75   44   47 2
@<TRIPOS>SUBSTRUCTURE
1 UNK0 1
@<TRIPOS>COMMENT
NAADP
PLANTSmolcadARTstart hb
PLANTSmolcadARTstart HB
LINES
PLANTSmolcadARTstart HBCH
LINES
PLANTSmolcadARTstart HB-CHO
LINES
PLANTSmolcadARTend
PLANTSmolcadARTstart HB_WATER
LINES
PLANTSmolcadARTend

PLANTSmolcadARTend

