@<TRIPOS>MOLECULE
NAADP_entry_00001_conf_33
71 75 1
SMALL
NO_CHARGES


@<TRIPOS>ATOM
      1 P           8.8692   -1.2474  -33.6421 P.3       1 UNK0        0.0000
      2 O           9.5751   -0.2413  -32.8180 O.co2     1 UNK0        0.0000
      3 O           9.2977   -2.7252  -33.1680 O.co2     1 UNK0        0.0000
      4 O           7.2789   -1.0668  -33.4650 O.3       1 UNK0        0.0000
      5 C           6.3241   -1.9278  -34.0881 C.3       1 UNK0        0.0000
      6 C           6.5427   -3.3634  -33.6080 C.3       1 UNK0        0.0000
      7 O           5.8212   -3.5849  -32.3845 O.3       1 UNK0        0.0000
      8 C           5.9896   -4.3549  -34.6508 C.3       1 UNK0        0.0000
      9 O           7.0321   -5.2060  -35.1328 O.3       1 UNK0        0.0000
     10 C           4.9345   -5.1768  -33.8719 C.3       1 UNK0        0.0000
     11 O           5.0043   -6.5596  -34.2234 O.3       1 UNK0        0.0000
     12 C           5.3744   -4.9580  -32.4010 C.3       1 UNK0        0.0000
     13 N           4.2403   -5.1420  -31.4921 N.2       1 UNK0        0.0000
     14 C           4.0963   -6.1384  -30.5732 C.2       1 UNK0        0.0000
     15 N           2.9691   -5.9980  -29.9371 N.2       1 UNK0        0.0000
     16 C           2.3198   -4.9062  -30.4072 C.2       1 UNK0        0.0000
     17 C           1.0964   -4.2802  -30.1116 C.2       1 UNK0        0.0000
     18 N           0.2594   -4.7879  -29.1340 N.pl3     1 UNK0        0.0000
     19 N           0.7635   -3.1895  -30.7931 N.2       1 UNK0        0.0000
     20 C           1.5561   -2.6968  -31.7280 C.2       1 UNK0        0.0000
     21 N           2.7087   -3.2497  -32.0383 N.2       1 UNK0        0.0000
     22 C           3.1295   -4.3407  -31.4062 C.2       1 UNK0        0.0000
     23 O           9.2633   -1.0451  -35.1903 O.3       1 UNK0        0.0000
     24 P          10.6568   -1.0233  -35.9961 P.3       1 UNK0        0.0000
     25 O          10.4546   -0.3147  -37.3544 O.co2     1 UNK0        0.0000
     26 O          11.7171   -0.2615  -35.1714 O.co2     1 UNK0        0.0000
     27 O          11.1548   -2.5329  -36.2479 O.3       1 UNK0        0.0000
     28 C          12.4786   -2.9772  -35.9427 C.3       1 UNK0        0.0000
     29 C          13.4404   -2.4991  -37.0322 C.3       1 UNK0        0.0000
     30 O          12.8035   -2.5873  -38.3186 O.3       1 UNK0        0.0000
     31 C          13.7998   -1.0187  -36.8008 C.3       1 UNK0        0.0000
     32 O          15.2088   -0.8702  -36.6121 O.3       1 UNK0        0.0000
     33 C          13.3500   -0.3097  -38.1013 C.3       1 UNK0        0.0000
     34 O          14.3085    0.6684  -38.5069 O.3       1 UNK0        0.0000
     35 C          13.2983   -1.4850  -39.1097 C.3       1 UNK0        0.0000
     36 N          12.3755   -1.1840  -40.2073 N.pl3     1 UNK0        0.0000
     37 C          12.8461   -1.1000  -41.4336 C.2       1 UNK0        0.0000
     38 C          11.9955   -0.8140  -42.5029 C.2       1 UNK0        0.0000
     39 C          12.5234   -0.7203  -43.8796 C.2       1 UNK0        0.0000
     40 O          11.7757   -0.4581  -44.7998 O.co2     1 UNK0        0.0000
     41 C          10.6324   -0.6171  -42.2482 C.2       1 UNK0        0.0000
     42 C          10.1885   -0.7169  -40.9411 C.2       1 UNK0        0.0000
     43 C          11.0951   -1.0085  -39.9384 C.2       1 UNK0        0.0000
     44 P           4.6278   -7.1124  -35.6885 P.3       1 UNK0        0.0000
     45 O           4.8209   -8.5800  -35.7259 O.co2     1 UNK0        0.0000
     46 O           3.0904   -6.7649  -36.0147 O.co2     1 UNK0        0.0000
     47 O           5.5805   -6.4180  -36.7851 O.co2     1 UNK0        0.0000
     48 O          13.8336   -0.9277  -44.1137 O.co2     1 UNK0        0.0000
     49 H           5.3167   -1.6050  -33.8239 H         1 UNK0        0.0000
     50 H           6.4466   -1.8835  -35.1704 H         1 UNK0        0.0000
     51 H           7.6057   -3.5440  -33.4494 H         1 UNK0        0.0000
     52 H           5.5222   -3.8185  -35.4766 H         1 UNK0        0.0000
     53 H           7.5131   -5.6731  -34.4367 H         1 UNK0        0.0000
     54 H           3.9330   -4.7843  -34.0416 H         1 UNK0        0.0000
     55 H           6.1898   -5.6312  -32.1396 H         1 UNK0        0.0000
     56 H           4.8123   -6.9284  -30.3971 H         1 UNK0        0.0000
     57 H           0.5144   -5.5851  -28.6432 H         1 UNK0        0.0000
     58 H          -0.5815   -4.3469  -28.9387 H         1 UNK0        0.0000
     59 H           1.2454   -1.8083  -32.2579 H         1 UNK0        0.0000
     60 H          12.7858   -2.5688  -34.9808 H         1 UNK0        0.0000
     61 H          12.4941   -4.0665  -35.8976 H         1 UNK0        0.0000
     62 H          14.3440   -3.1082  -37.0234 H         1 UNK0        0.0000
     63 H          13.2563   -0.6236  -35.9429 H         1 UNK0        0.0000
     64 H          15.4813   -0.8522  -35.6842 H         1 UNK0        0.0000
     65 H          12.3651    0.1407  -37.9779 H         1 UNK0        0.0000
     66 H          13.9177    1.4782  -38.8644 H         1 UNK0        0.0000
     67 H          14.2938   -1.7060  -39.4945 H         1 UNK0        0.0000
     68 H          13.9005   -1.2526  -41.6144 H         1 UNK0        0.0000
     69 H           9.9452   -0.3939  -43.0512 H         1 UNK0        0.0000
     70 H           9.1441   -0.5713  -40.7072 H         1 UNK0        0.0000
     71 H          10.7508   -1.0915  -38.9185 H         1 UNK0        0.0000
@<TRIPOS>BOND
     1    1    2 1
     2    1    3 2
     3    1    4 1
     4    1   23 1
     5    4    5 1
     6    5    6 1
     7    5   49 1
     8    5   50 1
     9    6    7 1
    10    6    8 1
    11    6   51 1
    12    7   12 1
    13    8    9 1
    14    8   10 1
    15    8   52 1
    16    9   53 1
    17   10   11 1
    18   10   12 1
    19   10   54 1
    20   11   44 1
    21   12   13 1
    22   12   55 1
    23   13   14 ar
    24   13   22 ar
    25   14   15 ar
    26   14   56 1
    27   15   16 ar
    28   16   17 ar
    29   16   22 ar
    30   17   18 1
    31   17   19 ar
    32   18   57 1
    33   18   58 1
    34   19   20 ar
    35   20   21 ar
    36   20   59 1
    37   21   22 ar
    38   23   24 1
    39   24   25 1
    40   24   26 2
    41   24   27 1
    42   27   28 1
    43   28   29 1
    44   28   60 1
    45   28   61 1
    46   29   30 1
    47   29   31 1
    48   29   62 1
    49   30   35 1
    50   31   32 1
    51   31   33 1
    52   31   63 1
    53   32   64 1
    54   33   34 1
    55   33   35 1
    56   33   65 1
    57   34   66 1
    58   35   36 1
    59   35   67 1
    60   36   37 ar
    61   36   43 ar
    62   37   38 ar
    63   37   68 1
    64   38   39 1
    65   38   41 ar
    66   39   40 ar
    67   39   48 ar
    68   41   42 ar
    69   41   69 1
    70   42   43 ar
    71   42   70 1
    72   43   71 1
    73   44   45 1
    74   44   46 1
    75   44   47 2
@<TRIPOS>SUBSTRUCTURE
1 UNK0 1
@<TRIPOS>COMMENT
NAADP
PLANTSmolcadARTstart hb
PLANTSmolcadARTstart HB
LINES
7.51314 -5.6731 -34.4367 8.966 -5.938 -33.353 0 255 0 5
15.4813 -0.852195 -35.6842 16.508 -0.577 -33.864 0 255 0 5
13.9177 1.47822 -38.8644 14.798 3.297 -39.554 0 255 0 5
PLANTSmolcadARTstart HBCH
LINES
PLANTSmolcadARTstart HB-CHO
LINES
4.81227 -6.92845 -30.3971 6.873 -6.929 -29.046 0 255 255 5
PLANTSmolcadARTend
PLANTSmolcadARTstart HB_WATER
LINES
PLANTSmolcadARTend

PLANTSmolcadARTend

