@<TRIPOS>MOLECULE
NAADP_entry_00001_conf_380
71 75 1
SMALL
NO_CHARGES


@<TRIPOS>ATOM
      1 P          19.4159   -1.4269  -36.6951 P.3       1 UNK0        0.0000
      2 O          20.7343   -1.8111  -37.2463 O.co2     1 UNK0        0.0000
      3 O          19.0048    0.0268  -37.2519 O.co2     1 UNK0        0.0000
      4 O          18.3098   -2.5070  -37.1457 O.3       1 UNK0        0.0000
      5 C          17.5879   -2.4144  -38.3752 C.3       1 UNK0        0.0000
      6 C          16.9249   -3.7589  -38.6793 C.3       1 UNK0        0.0000
      7 O          16.0079   -4.1009  -37.6263 O.3       1 UNK0        0.0000
      8 C          16.1075   -3.6574  -39.9823 C.3       1 UNK0        0.0000
      9 O          16.5974   -4.5859  -40.9527 O.3       1 UNK0        0.0000
     10 C          14.6660   -4.0271  -39.5568 C.3       1 UNK0        0.0000
     11 O          14.0438   -4.8614  -40.5352 O.3       1 UNK0        0.0000
     12 C          14.9072   -4.8073  -38.2385 C.3       1 UNK0        0.0000
     13 N          13.7193   -4.7517  -37.3830 N.2       1 UNK0        0.0000
     14 C          13.1749   -5.7914  -36.6898 C.2       1 UNK0        0.0000
     15 N          12.1250   -5.3882  -36.0341 N.2       1 UNK0        0.0000
     16 C          11.9292   -4.0680  -36.2655 C.2       1 UNK0        0.0000
     17 C          10.9814   -3.1202  -35.8421 C.2       1 UNK0        0.0000
     18 N           9.9543   -3.4791  -34.9875 N.pl3     1 UNK0        0.0000
     19 N          11.0959   -1.8717  -36.2818 N.2       1 UNK0        0.0000
     20 C          12.0733   -1.5192  -37.0974 C.2       1 UNK0        0.0000
     21 N          12.9812   -2.3723  -37.5199 N.2       1 UNK0        0.0000
     22 C          12.9523   -3.6424  -37.1289 C.2       1 UNK0        0.0000
     23 O          19.4988   -1.3821  -35.0875 O.3       1 UNK0        0.0000
     24 P          19.8778   -2.4633  -33.9566 P.3       1 UNK0        0.0000
     25 O          19.2072   -2.0681  -32.6217 O.co2     1 UNK0        0.0000
     26 O          19.3782   -3.8588  -34.3897 O.co2     1 UNK0        0.0000
     27 O          21.4752   -2.5006  -33.7636 O.3       1 UNK0        0.0000
     28 C          22.3922   -2.4941  -34.8600 C.3       1 UNK0        0.0000
     29 C          22.2433   -3.7917  -35.6566 C.3       1 UNK0        0.0000
     30 O          22.5026   -3.5421  -37.0490 O.3       1 UNK0        0.0000
     31 C          23.2821   -4.8233  -35.1761 C.3       1 UNK0        0.0000
     32 O          22.6305   -5.9943  -34.6791 O.3       1 UNK0        0.0000
     33 C          24.1023   -5.1578  -36.4458 C.3       1 UNK0        0.0000
     34 O          24.3821   -6.5565  -36.5186 O.3       1 UNK0        0.0000
     35 C          23.1364   -4.7271  -37.5782 C.3       1 UNK0        0.0000
     36 N          23.8807   -4.4109  -38.7999 N.pl3     1 UNK0        0.0000
     37 C          23.7982   -3.1975  -39.3031 C.2       1 UNK0        0.0000
     38 C          24.4934   -2.8621  -40.4662 C.2       1 UNK0        0.0000
     39 C          24.4014   -1.4999  -41.0308 C.2       1 UNK0        0.0000
     40 O          23.6798   -0.6741  -40.5092 O.co2     1 UNK0        0.0000
     41 C          25.2797   -3.8394  -41.0894 C.2       1 UNK0        0.0000
     42 C          25.3328   -5.0996  -40.5195 C.2       1 UNK0        0.0000
     43 C          24.6179   -5.3503  -39.3626 C.2       1 UNK0        0.0000
     44 P          13.8120   -4.4011  -42.0611 P.3       1 UNK0        0.0000
     45 O          13.7876   -2.9222  -42.1312 O.co2     1 UNK0        0.0000
     46 O          15.0094   -4.9622  -42.9788 O.co2     1 UNK0        0.0000
     47 O          12.4088   -4.9864  -42.5907 O.co2     1 UNK0        0.0000
     48 O          25.1166   -1.1750  -42.1251 O.co2     1 UNK0        0.0000
     49 H          16.8229   -1.6423  -38.2902 H         1 UNK0        0.0000
     50 H          18.2747   -2.1569  -39.1816 H         1 UNK0        0.0000
     51 H          17.6847   -4.5341  -38.7755 H         1 UNK0        0.0000
     52 H          16.1409   -2.6413  -40.3752 H         1 UNK0        0.0000
     53 H          16.9969   -5.3795  -40.5724 H         1 UNK0        0.0000
     54 H          14.0721   -3.1323  -39.3769 H         1 UNK0        0.0000
     55 H          15.1820   -5.8403  -38.4482 H         1 UNK0        0.0000
     56 H          13.5583   -6.8017  -36.6838 H         1 UNK0        0.0000
     57 H           9.8820   -4.3942  -34.6734 H         1 UNK0        0.0000
     58 H           9.3070   -2.8162  -34.7020 H         1 UNK0        0.0000
     59 H          12.1278   -0.4932  -37.4307 H         1 UNK0        0.0000
     60 H          22.1793   -1.6435  -35.5062 H         1 UNK0        0.0000
     61 H          23.4113   -2.4166  -34.4798 H         1 UNK0        0.0000
     62 H          21.2367   -4.1903  -35.5326 H         1 UNK0        0.0000
     63 H          23.9244   -4.3899  -34.4099 H         1 UNK0        0.0000
     64 H          22.5170   -6.6914  -35.3399 H         1 UNK0        0.0000
     65 H          25.0235   -4.5761  -36.4779 H         1 UNK0        0.0000
     66 H          25.2621   -6.7993  -36.1977 H         1 UNK0        0.0000
     67 H          22.3966   -5.5044  -37.7693 H         1 UNK0        0.0000
     68 H          23.1861   -2.4546  -38.8122 H         1 UNK0        0.0000
     69 H          25.8310   -3.6152  -41.9908 H         1 UNK0        0.0000
     70 H          25.9289   -5.8781  -40.9724 H         1 UNK0        0.0000
     71 H          24.6612   -6.3311  -38.9133 H         1 UNK0        0.0000
@<TRIPOS>BOND
     1    1    2 1
     2    1    3 2
     3    1    4 1
     4    1   23 1
     5    4    5 1
     6    5    6 1
     7    5   49 1
     8    5   50 1
     9    6    7 1
    10    6    8 1
    11    6   51 1
    12    7   12 1
    13    8    9 1
    14    8   10 1
    15    8   52 1
    16    9   53 1
    17   10   11 1
    18   10   12 1
    19   10   54 1
    20   11   44 1
    21   12   13 1
    22   12   55 1
    23   13   14 ar
    24   13   22 ar
    25   14   15 ar
    26   14   56 1
    27   15   16 ar
    28   16   17 ar
    29   16   22 ar
    30   17   18 1
    31   17   19 ar
    32   18   57 1
    33   18   58 1
    34   19   20 ar
    35   20   21 ar
    36   20   59 1
    37   21   22 ar
    38   23   24 1
    39   24   25 1
    40   24   26 2
    41   24   27 1
    42   27   28 1
    43   28   29 1
    44   28   60 1
    45   28   61 1
    46   29   30 1
    47   29   31 1
    48   29   62 1
    49   30   35 1
    50   31   32 1
    51   31   33 1
    52   31   63 1
    53   32   64 1
    54   33   34 1
    55   33   35 1
    56   33   65 1
    57   34   66 1
    58   35   36 1
    59   35   67 1
    60   36   37 ar
    61   36   43 ar
    62   37   38 ar
    63   37   68 1
    64   38   39 1
    65   38   41 ar
    66   39   40 ar
    67   39   48 ar
    68   41   42 ar
    69   41   69 1
    70   42   43 ar
    71   42   70 1
    72   43   71 1
    73   44   45 1
    74   44   46 1
    75   44   47 2
@<TRIPOS>SUBSTRUCTURE
1 UNK0 1
@<TRIPOS>COMMENT
NAADP
PLANTSmolcadARTstart hb
PLANTSmolcadARTstart HB
LINES
9.88204 -4.39418 -34.6734 8.966 -5.938 -33.353 0 255 0 5
PLANTSmolcadARTstart HBCH
LINES
PLANTSmolcadARTstart HB-CHO
LINES
12.1278 -0.493211 -37.4307 11.862 1.952 -37.833 0 255 255 5
PLANTSmolcadARTend
PLANTSmolcadARTstart HB_WATER
LINES
PLANTSmolcadARTend

PLANTSmolcadARTend

