@<TRIPOS>MOLECULE
NAADP_entry_00001_conf_05
71 75 1
SMALL
NO_CHARGES


@<TRIPOS>ATOM
      1 P           8.3213   -2.0108  -32.8882 P.3       1 UNK0        0.0000
      2 O           7.9992   -0.6163  -33.2638 O.co2     1 UNK0        0.0000
      3 O           7.9303   -2.9965  -34.0997 O.co2     1 UNK0        0.0000
      4 O           9.8976   -2.1344  -32.5830 O.3       1 UNK0        0.0000
      5 C          10.8946   -1.4647  -33.3568 C.3       1 UNK0        0.0000
      6 C          10.7743   -1.8902  -34.8210 C.3       1 UNK0        0.0000
      7 O          11.5872   -1.0384  -35.6459 O.3       1 UNK0        0.0000
      8 C          11.2989   -3.3294  -34.9935 C.3       1 UNK0        0.0000
      9 O          10.2653   -4.1811  -35.4933 O.3       1 UNK0        0.0000
     10 C          12.4409   -3.1964  -36.0297 C.3       1 UNK0        0.0000
     11 O          12.4096   -4.2762  -36.9643 O.3       1 UNK0        0.0000
     12 C          12.0933   -1.8542  -36.7245 C.3       1 UNK0        0.0000
     13 N          13.2941   -1.2508  -37.3077 N.2       1 UNK0        0.0000
     14 C          14.2728   -0.5858  -36.6311 C.2       1 UNK0        0.0000
     15 N          15.1915   -0.1815  -37.4602 N.2       1 UNK0        0.0000
     16 C          14.8605   -0.5595  -38.7181 C.2       1 UNK0        0.0000
     17 C          15.4519   -0.4063  -39.9842 C.2       1 UNK0        0.0000
     18 N          16.6536    0.2640  -40.1277 N.pl3     1 UNK0        0.0000
     19 N          14.8294   -0.9207  -41.0391 N.2       1 UNK0        0.0000
     20 C          13.6820   -1.5627  -40.9121 C.2       1 UNK0        0.0000
     21 N          13.0922   -1.7291  -39.7481 N.2       1 UNK0        0.0000
     22 C          13.6426   -1.2547  -38.6351 C.2       1 UNK0        0.0000
     23 O           7.4863   -2.4190  -31.5732 O.3       1 UNK0        0.0000
     24 P           5.9321   -2.7239  -31.2851 P.3       1 UNK0        0.0000
     25 O           5.5974   -4.1627  -31.7389 O.co2     1 UNK0        0.0000
     26 O           5.6508   -2.5830  -29.7732 O.co2     1 UNK0        0.0000
     27 O           5.0199   -1.6786  -32.1010 O.3       1 UNK0        0.0000
     28 C           4.6189   -1.8880  -33.4569 C.3       1 UNK0        0.0000
     29 C           3.7923   -0.6924  -33.9342 C.3       1 UNK0        0.0000
     30 O           2.7794   -0.3801  -32.9621 O.3       1 UNK0        0.0000
     31 C           4.6954    0.5488  -34.0680 C.3       1 UNK0        0.0000
     32 O           4.6896    1.0281  -35.4146 O.3       1 UNK0        0.0000
     33 C           4.0539    1.5907  -33.1197 C.3       1 UNK0        0.0000
     34 O           4.0603    2.8908  -33.7110 O.3       1 UNK0        0.0000
     35 C           2.6073    1.0538  -32.9795 C.3       1 UNK0        0.0000
     36 N           2.0040    1.5151  -31.7265 N.pl3     1 UNK0        0.0000
     37 C           2.3209    0.9079  -30.6025 C.2       1 UNK0        0.0000
     38 C           1.7644    1.3208  -29.3907 C.2       1 UNK0        0.0000
     39 C           2.1205    0.6399  -28.1289 C.2       1 UNK0        0.0000
     40 O           1.7153    1.0740  -27.0696 O.co2     1 UNK0        0.0000
     41 C           0.8619    2.3919  -29.3915 C.2       1 UNK0        0.0000
     42 C           0.5626    2.9962  -30.6002 C.2       1 UNK0        0.0000
     43 C           1.1608    2.5303  -31.7567 C.2       1 UNK0        0.0000
     44 P          12.6915   -5.8060  -36.5470 P.3       1 UNK0        0.0000
     45 O          12.2257   -6.7051  -37.6274 O.co2     1 UNK0        0.0000
     46 O          14.2704   -6.0173  -36.3164 O.co2     1 UNK0        0.0000
     47 O          11.8991   -6.1459  -35.1874 O.co2     1 UNK0        0.0000
     48 O           2.8962   -0.4611  -28.1538 O.co2     1 UNK0        0.0000
     49 H          10.7523   -0.3866  -33.2781 H         1 UNK0        0.0000
     50 H          11.8837   -1.7280  -32.9816 H         1 UNK0        0.0000
     51 H           9.7340   -1.8321  -35.1402 H         1 UNK0        0.0000
     52 H          11.6840   -3.7108  -34.0478 H         1 UNK0        0.0000
     53 H           9.9196   -4.8056  -34.8417 H         1 UNK0        0.0000
     54 H          13.4097   -3.1399  -35.5356 H         1 UNK0        0.0000
     55 H          11.3289   -2.0026  -37.4862 H         1 UNK0        0.0000
     56 H          14.2858   -0.4192  -35.5635 H         1 UNK0        0.0000
     57 H          17.0983    0.6347  -39.3492 H         1 UNK0        0.0000
     58 H          17.0519    0.3627  -41.0061 H         1 UNK0        0.0000
     59 H          13.2102   -1.9643  -41.7970 H         1 UNK0        0.0000
     60 H           5.5028   -1.9935  -34.0845 H         1 UNK0        0.0000
     61 H           4.0164   -2.7945  -33.5209 H         1 UNK0        0.0000
     62 H           3.3278   -0.9211  -34.8931 H         1 UNK0        0.0000
     63 H           5.7116    0.3175  -33.7499 H         1 UNK0        0.0000
     64 H           5.5712    1.1918  -35.7773 H         1 UNK0        0.0000
     65 H           4.5603    1.6015  -32.1545 H         1 UNK0        0.0000
     66 H           3.4658    3.5219  -33.2811 H         1 UNK0        0.0000
     67 H           2.0001    1.3565  -33.8325 H         1 UNK0        0.0000
     68 H           3.0173    0.0819  -30.6179 H         1 UNK0        0.0000
     69 H           0.4118    2.7380  -28.4726 H         1 UNK0        0.0000
     70 H          -0.1289    3.8249  -30.6390 H         1 UNK0        0.0000
     71 H           0.9327    3.0028  -32.7003 H         1 UNK0        0.0000
@<TRIPOS>BOND
     1    1    2 1
     2    1    3 2
     3    1    4 1
     4    1   23 1
     5    4    5 1
     6    5    6 1
     7    5   49 1
     8    5   50 1
     9    6    7 1
    10    6    8 1
    11    6   51 1
    12    7   12 1
    13    8    9 1
    14    8   10 1
    15    8   52 1
    16    9   53 1
    17   10   11 1
    18   10   12 1
    19   10   54 1
    20   11   44 1
    21   12   13 1
    22   12   55 1
    23   13   14 ar
    24   13   22 ar
    25   14   15 ar
    26   14   56 1
    27   15   16 ar
    28   16   17 ar
    29   16   22 ar
    30   17   18 1
    31   17   19 ar
    32   18   57 1
    33   18   58 1
    34   19   20 ar
    35   20   21 ar
    36   20   59 1
    37   21   22 ar
    38   23   24 1
    39   24   25 1
    40   24   26 2
    41   24   27 1
    42   27   28 1
    43   28   29 1
    44   28   60 1
    45   28   61 1
    46   29   30 1
    47   29   31 1
    48   29   62 1
    49   30   35 1
    50   31   32 1
    51   31   33 1
    52   31   63 1
    53   32   64 1
    54   33   34 1
    55   33   35 1
    56   33   65 1
    57   34   66 1
    58   35   36 1
    59   35   67 1
    60   36   37 ar
    61   36   43 ar
    62   37   38 ar
    63   37   68 1
    64   38   39 1
    65   38   41 ar
    66   39   40 ar
    67   39   48 ar
    68   41   42 ar
    69   41   69 1
    70   42   43 ar
    71   42   70 1
    72   43   71 1
    73   44   45 1
    74   44   46 1
    75   44   47 2
@<TRIPOS>SUBSTRUCTURE
1 UNK0 1
@<TRIPOS>COMMENT
NAADP
PLANTSmolcadARTstart hb
PLANTSmolcadARTstart HB
LINES
9.9196 -4.80558 -34.8417 8.966 -5.938 -33.353 0 255 0 5
5.57116 1.19181 -35.7773 6.583 1.705 -37.098 0 255 0 5
PLANTSmolcadARTstart HBCH
LINES
PLANTSmolcadARTstart HB-CHO
LINES
PLANTSmolcadARTend
PLANTSmolcadARTstart HB_WATER
LINES
PLANTSmolcadARTend

PLANTSmolcadARTend

