@<TRIPOS>MOLECULE
NAADP_entry_00001_conf_519
71 75 1
SMALL
NO_CHARGES


@<TRIPOS>ATOM
      1 P          14.7934   -2.0166  -38.1249 P.3       1 UNK0        0.0000
      2 O          15.4303   -3.3144  -37.8095 O.co2     1 UNK0        0.0000
      3 O          15.7358   -0.8173  -37.6094 O.co2     1 UNK0        0.0000
      4 O          14.5884   -1.8918  -39.7173 O.3       1 UNK0        0.0000
      5 C          13.9028   -2.8766  -40.4928 C.3       1 UNK0        0.0000
      6 C          14.6100   -4.2247  -40.3449 C.3       1 UNK0        0.0000
      7 O          13.9055   -5.2308  -41.0920 O.3       1 UNK0        0.0000
      8 C          16.0344   -4.1362  -40.9275 C.3       1 UNK0        0.0000
      9 O          17.0056   -4.4198  -39.9176 O.3       1 UNK0        0.0000
     10 C          16.0632   -5.2234  -42.0287 C.3       1 UNK0        0.0000
     11 O          17.3050   -5.9293  -42.0159 O.3       1 UNK0        0.0000
     12 C          14.8964   -6.1505  -41.5994 C.3       1 UNK0        0.0000
     13 N          14.3736   -6.8871  -42.7528 N.2       1 UNK0        0.0000
     14 C          14.4944   -8.2260  -42.9771 C.2       1 UNK0        0.0000
     15 N          13.9127   -8.5441  -44.0976 N.2       1 UNK0        0.0000
     16 C          13.3843   -7.4319  -44.6620 C.2       1 UNK0        0.0000
     17 C          12.6643   -7.1680  -45.8402 C.2       1 UNK0        0.0000
     18 N          12.3501   -8.1874  -46.7212 N.pl3     1 UNK0        0.0000
     19 N          12.2926   -5.9166  -46.0870 N.2       1 UNK0        0.0000
     20 C          12.5874   -4.9366  -45.2518 C.2       1 UNK0        0.0000
     21 N          13.2596   -5.1370  -44.1389 N.2       1 UNK0        0.0000
     22 C          13.6685   -6.3566  -43.8039 C.2       1 UNK0        0.0000
     23 O          13.3627   -1.9284  -37.3909 O.3       1 UNK0        0.0000
     24 P          12.1018   -2.9225  -37.2754 P.3       1 UNK0        0.0000
     25 O          11.7716   -3.4989  -38.6707 O.co2     1 UNK0        0.0000
     26 O          12.4432   -4.0778  -36.3093 O.co2     1 UNK0        0.0000
     27 O          10.8290   -2.1121  -36.7153 O.3       1 UNK0        0.0000
     28 C          10.2779   -0.9725  -37.3791 C.3       1 UNK0        0.0000
     29 C           9.8792   -1.3569  -38.8052 C.3       1 UNK0        0.0000
     30 O           8.7554   -2.2538  -38.7729 O.3       1 UNK0        0.0000
     31 C           9.4395   -0.1012  -39.5825 C.3       1 UNK0        0.0000
     32 O          10.2748    0.0969  -40.7253 O.3       1 UNK0        0.0000
     33 C           7.9879   -0.4132  -40.0205 C.3       1 UNK0        0.0000
     34 O           7.7523    0.0291  -41.3580 O.3       1 UNK0        0.0000
     35 C           7.9487   -1.9597  -39.9342 C.3       1 UNK0        0.0000
     36 N           6.5754   -2.4319  -39.7401 N.pl3     1 UNK0        0.0000
     37 C           5.6021   -1.8656  -40.4215 C.2       1 UNK0        0.0000
     38 C           4.2819   -2.2899  -40.2606 C.2       1 UNK0        0.0000
     39 C           3.1893   -1.6548  -41.0258 C.2       1 UNK0        0.0000
     40 O           2.0465   -2.0411  -40.8865 O.co2     1 UNK0        0.0000
     41 C           4.0107   -3.3283  -39.3607 C.2       1 UNK0        0.0000
     42 C           5.0699   -3.8903  -38.6694 C.2       1 UNK0        0.0000
     43 C           6.3501   -3.4158  -38.8894 C.2       1 UNK0        0.0000
     44 P          18.7029   -5.2531  -42.4431 P.3       1 UNK0        0.0000
     45 O          19.1637   -4.3504  -41.3636 O.co2     1 UNK0        0.0000
     46 O          19.8027   -6.4026  -42.6875 O.co2     1 UNK0        0.0000
     47 O          18.4980   -4.4079  -43.7980 O.co2     1 UNK0        0.0000
     48 O           3.4616   -0.6487  -41.8792 O.co2     1 UNK0        0.0000
     49 H          12.8744   -2.9645  -40.1416 H         1 UNK0        0.0000
     50 H          13.9034   -2.5786  -41.5414 H         1 UNK0        0.0000
     51 H          14.6545   -4.5072  -39.2933 H         1 UNK0        0.0000
     52 H          16.2092   -3.1507  -41.3593 H         1 UNK0        0.0000
     53 H          17.7592   -4.9380  -40.2299 H         1 UNK0        0.0000
     54 H          15.8750   -4.7889  -43.0093 H         1 UNK0        0.0000
     55 H          15.2192   -6.8377  -40.8185 H         1 UNK0        0.0000
     56 H          14.9977   -8.9222  -42.3216 H         1 UNK0        0.0000
     57 H          12.6272   -9.0972  -46.5290 H         1 UNK0        0.0000
     58 H          11.8526   -7.9930  -47.5301 H         1 UNK0        0.0000
     59 H          12.2660   -3.9339  -45.4926 H         1 UNK0        0.0000
     60 H           9.3996   -0.6258  -36.8362 H         1 UNK0        0.0000
     61 H          11.0229   -0.1770  -37.4125 H         1 UNK0        0.0000
     62 H          10.7192   -1.8333  -39.3102 H         1 UNK0        0.0000
     63 H           9.4633    0.7757  -38.9361 H         1 UNK0        0.0000
     64 H          10.8428   -0.6581  -40.9326 H         1 UNK0        0.0000
     65 H           7.2699    0.0332  -39.3326 H         1 UNK0        0.0000
     66 H           7.8346   -0.6684  -42.0237 H         1 UNK0        0.0000
     67 H           8.3858   -2.4062  -40.8274 H         1 UNK0        0.0000
     68 H           5.8265   -1.0643  -41.1108 H         1 UNK0        0.0000
     69 H           3.0011   -3.6821  -39.2108 H         1 UNK0        0.0000
     70 H           4.8984   -4.6930  -37.9674 H         1 UNK0        0.0000
     71 H           7.1788   -3.8555  -38.3549 H         1 UNK0        0.0000
@<TRIPOS>BOND
     1    1    2 1
     2    1    3 2
     3    1    4 1
     4    1   23 1
     5    4    5 1
     6    5    6 1
     7    5   49 1
     8    5   50 1
     9    6    7 1
    10    6    8 1
    11    6   51 1
    12    7   12 1
    13    8    9 1
    14    8   10 1
    15    8   52 1
    16    9   53 1
    17   10   11 1
    18   10   12 1
    19   10   54 1
    20   11   44 1
    21   12   13 1
    22   12   55 1
    23   13   14 ar
    24   13   22 ar
    25   14   15 ar
    26   14   56 1
    27   15   16 ar
    28   16   17 ar
    29   16   22 ar
    30   17   18 1
    31   17   19 ar
    32   18   57 1
    33   18   58 1
    34   19   20 ar
    35   20   21 ar
    36   20   59 1
    37   21   22 ar
    38   23   24 1
    39   24   25 1
    40   24   26 2
    41   24   27 1
    42   27   28 1
    43   28   29 1
    44   28   60 1
    45   28   61 1
    46   29   30 1
    47   29   31 1
    48   29   62 1
    49   30   35 1
    50   31   32 1
    51   31   33 1
    52   31   63 1
    53   32   64 1
    54   33   34 1
    55   33   35 1
    56   33   65 1
    57   34   66 1
    58   35   36 1
    59   35   67 1
    60   36   37 ar
    61   36   43 ar
    62   37   38 ar
    63   37   68 1
    64   38   39 1
    65   38   41 ar
    66   39   40 ar
    67   39   48 ar
    68   41   42 ar
    69   41   69 1
    70   42   43 ar
    71   42   70 1
    72   43   71 1
    73   44   45 1
    74   44   46 1
    75   44   47 2
@<TRIPOS>SUBSTRUCTURE
1 UNK0 1
@<TRIPOS>COMMENT
NAADP
PLANTSmolcadARTstart hb
PLANTSmolcadARTstart HB
LINES
PLANTSmolcadARTstart HBCH
LINES
PLANTSmolcadARTstart HB-CHO
LINES
PLANTSmolcadARTend
PLANTSmolcadARTstart HB_WATER
LINES
PLANTSmolcadARTend

PLANTSmolcadARTend

