@<TRIPOS>MOLECULE
NAADP_entry_00001_conf_583
71 75 1
SMALL
NO_CHARGES


@<TRIPOS>ATOM
      1 P          15.9349   11.9487  -49.1304 P.3       1 UNK0        0.0000
      2 O          16.4188   11.3822  -50.4089 O.co2     1 UNK0        0.0000
      3 O          14.3467   11.7148  -49.0071 O.co2     1 UNK0        0.0000
      4 O          16.6817   11.2207  -47.9034 O.3       1 UNK0        0.0000
      5 C          17.2661    9.9213  -48.0093 C.3       1 UNK0        0.0000
      6 C          17.4547    9.3318  -46.6105 C.3       1 UNK0        0.0000
      7 O          18.2914    8.1650  -46.6806 O.3       1 UNK0        0.0000
      8 C          18.1692   10.3530  -45.7034 C.3       1 UNK0        0.0000
      9 O          17.3478   10.6850  -44.5815 O.3       1 UNK0        0.0000
     10 C          19.4503    9.6186  -45.2395 C.3       1 UNK0        0.0000
     11 O          19.7116    9.8724  -43.8582 O.3       1 UNK0        0.0000
     12 C          19.0717    8.1319  -45.4659 C.3       1 UNK0        0.0000
     13 N          20.2750    7.3166  -45.6481 N.2       1 UNK0        0.0000
     14 C          21.5615    7.7668  -45.6528 C.2       1 UNK0        0.0000
     15 N          22.3806    6.7724  -45.8402 N.2       1 UNK0        0.0000
     16 C          21.6732    5.6244  -45.9684 C.2       1 UNK0        0.0000
     17 C          22.0075    4.2761  -46.1832 C.2       1 UNK0        0.0000
     18 N          23.3287    3.8860  -46.3108 N.pl3     1 UNK0        0.0000
     19 N          21.0246    3.3856  -46.2603 N.2       1 UNK0        0.0000
     20 C          19.7602    3.7482  -46.1393 C.2       1 UNK0        0.0000
     21 N          19.4011    4.9977  -45.9386 N.2       1 UNK0        0.0000
     22 C          20.3146    5.9584  -45.8413 C.2       1 UNK0        0.0000
     23 O          16.2496   13.5275  -49.0897 O.3       1 UNK0        0.0000
     24 P          17.0701   14.4788  -48.0831 P.3       1 UNK0        0.0000
     25 O          18.5121   13.9447  -47.9309 O.co2     1 UNK0        0.0000
     26 O          17.1108   15.9150  -48.6493 O.co2     1 UNK0        0.0000
     27 O          16.3474   14.4886  -46.6450 O.3       1 UNK0        0.0000
     28 C          16.2017   13.3173  -45.8389 C.3       1 UNK0        0.0000
     29 C          15.5677   13.6963  -44.4992 C.3       1 UNK0        0.0000
     30 O          16.3420   14.7311  -43.8682 O.3       1 UNK0        0.0000
     31 C          14.1528   14.2610  -44.7304 C.3       1 UNK0        0.0000
     32 O          13.1795   13.4623  -44.0540 O.3       1 UNK0        0.0000
     33 C          14.2055   15.6826  -44.1200 C.3       1 UNK0        0.0000
     34 O          13.0048   15.9753  -43.4041 O.3       1 UNK0        0.0000
     35 C          15.4131   15.5763  -43.1550 C.3       1 UNK0        0.0000
     36 N          15.9996   16.8971  -42.9137 N.pl3     1 UNK0        0.0000
     37 C          15.2070   17.9031  -42.6102 C.2       1 UNK0        0.0000
     38 C          15.7319   19.1750  -42.3747 C.2       1 UNK0        0.0000
     39 C          14.8424   20.3042  -42.0335 C.2       1 UNK0        0.0000
     40 O          15.2758   21.4386  -42.0296 O.co2     1 UNK0        0.0000
     41 C          17.1167   19.3626  -42.4679 C.2       1 UNK0        0.0000
     42 C          17.9060   18.2720  -42.7896 C.2       1 UNK0        0.0000
     43 C          17.3085   17.0432  -43.0032 C.2       1 UNK0        0.0000
     44 P          20.1618   11.3149  -43.3012 P.3       1 UNK0        0.0000
     45 O          21.5185   11.6345  -43.8011 O.co2     1 UNK0        0.0000
     46 O          19.1244   12.4350  -43.8111 O.co2     1 UNK0        0.0000
     47 O          20.1759   11.2879  -41.6915 O.co2     1 UNK0        0.0000
     48 O          13.5514   20.0748  -41.7249 O.co2     1 UNK0        0.0000
     49 H          16.6100    9.2740  -48.5916 H         1 UNK0        0.0000
     50 H          18.2337    9.9972  -48.5055 H         1 UNK0        0.0000
     51 H          16.4866    9.0688  -46.1849 H         1 UNK0        0.0000
     52 H          18.4262   11.2497  -46.2672 H         1 UNK0        0.0000
     53 H          17.8275   11.0944  -43.8491 H         1 UNK0        0.0000
     54 H          20.3043    9.9010  -45.8533 H         1 UNK0        0.0000
     55 H          18.4751    7.7566  -44.6355 H         1 UNK0        0.0000
     56 H          21.8589    8.7971  -45.5195 H         1 UNK0        0.0000
     57 H          24.0373    4.5462  -46.2522 H         1 UNK0        0.0000
     58 H          23.5468    2.9529  -46.4580 H         1 UNK0        0.0000
     59 H          18.9931    2.9909  -46.2094 H         1 UNK0        0.0000
     60 H          15.5641   12.5996  -46.3535 H         1 UNK0        0.0000
     61 H          17.1821   12.8735  -45.6637 H         1 UNK0        0.0000
     62 H          15.5192   12.8220  -43.8505 H         1 UNK0        0.0000
     63 H          13.9313   14.3110  -45.7962 H         1 UNK0        0.0000
     64 H          12.4931   13.1042  -44.6339 H         1 UNK0        0.0000
     65 H          14.3887   16.4304  -44.8916 H         1 UNK0        0.0000
     66 H          12.2748   15.3695  -43.5952 H         1 UNK0        0.0000
     67 H          15.1151   15.1108  -42.2155 H         1 UNK0        0.0000
     68 H          14.1404   17.7434  -42.5437 H         1 UNK0        0.0000
     69 H          17.5575   20.3330  -42.2924 H         1 UNK0        0.0000
     70 H          18.9776   18.3793  -42.8701 H         1 UNK0        0.0000
     71 H          17.9222   16.1898  -43.2497 H         1 UNK0        0.0000
@<TRIPOS>BOND
     1    1    2 1
     2    1    3 2
     3    1    4 1
     4    1   23 1
     5    4    5 1
     6    5    6 1
     7    5   49 1
     8    5   50 1
     9    6    7 1
    10    6    8 1
    11    6   51 1
    12    7   12 1
    13    8    9 1
    14    8   10 1
    15    8   52 1
    16    9   53 1
    17   10   11 1
    18   10   12 1
    19   10   54 1
    20   11   44 1
    21   12   13 1
    22   12   55 1
    23   13   14 ar
    24   13   22 ar
    25   14   15 ar
    26   14   56 1
    27   15   16 ar
    28   16   17 ar
    29   16   22 ar
    30   17   18 1
    31   17   19 ar
    32   18   57 1
    33   18   58 1
    34   19   20 ar
    35   20   21 ar
    36   20   59 1
    37   21   22 ar
    38   23   24 1
    39   24   25 1
    40   24   26 2
    41   24   27 1
    42   27   28 1
    43   28   29 1
    44   28   60 1
    45   28   61 1
    46   29   30 1
    47   29   31 1
    48   29   62 1
    49   30   35 1
    50   31   32 1
    51   31   33 1
    52   31   63 1
    53   32   64 1
    54   33   34 1
    55   33   35 1
    56   33   65 1
    57   34   66 1
    58   35   36 1
    59   35   67 1
    60   36   37 ar
    61   36   43 ar
    62   37   38 ar
    63   37   68 1
    64   38   39 1
    65   38   41 ar
    66   39   40 ar
    67   39   48 ar
    68   41   42 ar
    69   41   69 1
    70   42   43 ar
    71   42   70 1
    72   43   71 1
    73   44   45 1
    74   44   46 1
    75   44   47 2
@<TRIPOS>SUBSTRUCTURE
1 UNK0 1
@<TRIPOS>COMMENT
NAADP
PLANTSmolcadARTstart hb
PLANTSmolcadARTstart HB
LINES
PLANTSmolcadARTstart HBCH
LINES
PLANTSmolcadARTstart HB-CHO
LINES
PLANTSmolcadARTend
PLANTSmolcadARTstart HB_WATER
LINES
PLANTSmolcadARTend

PLANTSmolcadARTend

