@<TRIPOS>MOLECULE
NAADP_entry_00001_conf_812
71 75 1
SMALL
NO_CHARGES


@<TRIPOS>ATOM
      1 P          20.1568   -4.0078  -44.2483 P.3       1 UNK0        0.0000
      2 O          21.4070   -4.6707  -43.8158 O.co2     1 UNK0        0.0000
      3 O          19.1621   -5.1020  -44.8850 O.co2     1 UNK0        0.0000
      4 O          19.4498   -3.3139  -42.9786 O.3       1 UNK0        0.0000
      5 C          18.0316   -3.2273  -42.8291 C.3       1 UNK0        0.0000
      6 C          17.6980   -2.2915  -41.6661 C.3       1 UNK0        0.0000
      7 O          16.3030   -2.3995  -41.3365 O.3       1 UNK0        0.0000
      8 C          18.4969   -2.7055  -40.4144 C.3       1 UNK0        0.0000
      9 O          19.3422   -1.6356  -39.9850 O.3       1 UNK0        0.0000
     10 C          17.4117   -3.0000  -39.3508 C.3       1 UNK0        0.0000
     11 O          17.7992   -2.4926  -38.0730 O.3       1 UNK0        0.0000
     12 C          16.1920   -2.2209  -39.9078 C.3       1 UNK0        0.0000
     13 N          14.9413   -2.8000  -39.4114 N.2       1 UNK0        0.0000
     14 C          14.3813   -2.5825  -38.1879 C.2       1 UNK0        0.0000
     15 N          13.2717   -3.2549  -38.0802 N.2       1 UNK0        0.0000
     16 C          13.0509   -3.9455  -39.2243 C.2       1 UNK0        0.0000
     17 C          12.0451   -4.8189  -39.6733 C.2       1 UNK0        0.0000
     18 N          10.9689   -5.1351  -38.8635 N.pl3     1 UNK0        0.0000
     19 N          12.1526   -5.3327  -40.8937 N.2       1 UNK0        0.0000
     20 C          13.1760   -5.0364  -41.6745 C.2       1 UNK0        0.0000
     21 N          14.1400   -4.2254  -41.2959 N.2       1 UNK0        0.0000
     22 C          14.1159   -3.6580  -40.0941 C.2       1 UNK0        0.0000
     23 O          20.4981   -2.8860  -45.3521 O.3       1 UNK0        0.0000
     24 P          21.7284   -1.8714  -45.5722 P.3       1 UNK0        0.0000
     25 O          21.3311   -0.7987  -46.6112 O.co2     1 UNK0        0.0000
     26 O          22.0770   -1.1859  -44.2330 O.co2     1 UNK0        0.0000
     27 O          23.0082   -2.6877  -46.1071 O.3       1 UNK0        0.0000
     28 C          23.8086   -2.2476  -47.2065 C.3       1 UNK0        0.0000
     29 C          25.0783   -1.5784  -46.6769 C.3       1 UNK0        0.0000
     30 O          24.7322   -0.4076  -45.9167 O.3       1 UNK0        0.0000
     31 C          25.8185   -2.5384  -45.7257 C.3       1 UNK0        0.0000
     32 O          27.1314   -2.8158  -46.2180 O.3       1 UNK0        0.0000
     33 C          25.8945   -1.7649  -44.3869 C.3       1 UNK0        0.0000
     34 O          27.1706   -1.9383  -43.7693 O.3       1 UNK0        0.0000
     35 C          25.6979   -0.2988  -44.8483 C.3       1 UNK0        0.0000
     36 N          25.1666    0.5199  -43.7555 N.pl3     1 UNK0        0.0000
     37 C          25.9839    0.9328  -42.8101 C.2       1 UNK0        0.0000
     38 C          25.5114    1.7138  -41.7538 C.2       1 UNK0        0.0000
     39 C          26.4289    2.1779  -40.6928 C.2       1 UNK0        0.0000
     40 O          25.9839    2.7065  -39.6941 O.co2     1 UNK0        0.0000
     41 C          24.1523    2.0497  -41.7169 C.2       1 UNK0        0.0000
     42 C          23.3355    1.5907  -42.7356 C.2       1 UNK0        0.0000
     43 C          23.8824    0.8256  -43.7494 C.2       1 UNK0        0.0000
     44 P          19.0100   -3.1148  -37.2124 P.3       1 UNK0        0.0000
     45 O          19.3130   -2.2216  -36.0709 O.co2     1 UNK0        0.0000
     46 O          18.5860   -4.5661  -36.6604 O.co2     1 UNK0        0.0000
     47 O          20.3149   -3.2544  -38.1452 O.co2     1 UNK0        0.0000
     48 O          27.7586    2.0163  -40.8345 O.co2     1 UNK0        0.0000
     49 H          17.5924   -2.8373  -43.7476 H         1 UNK0        0.0000
     50 H          17.6262   -4.2186  -42.6261 H         1 UNK0        0.0000
     51 H          17.9364   -1.2632  -41.9369 H         1 UNK0        0.0000
     52 H          19.0860   -3.6000  -40.6167 H         1 UNK0        0.0000
     53 H          20.2145   -1.9200  -39.6813 H         1 UNK0        0.0000
     54 H          17.2006   -4.0669  -39.2959 H         1 UNK0        0.0000
     55 H          16.2579   -1.1658  -39.6457 H         1 UNK0        0.0000
     56 H          14.7958   -1.9450  -37.4201 H         1 UNK0        0.0000
     57 H          10.9020   -4.7527  -37.9743 H         1 UNK0        0.0000
     58 H          10.2811   -5.7382  -39.1846 H         1 UNK0        0.0000
     59 H          13.2235   -5.4777  -42.6593 H         1 UNK0        0.0000
     60 H          24.0783   -3.1031  -47.8244 H         1 UNK0        0.0000
     61 H          23.2428   -1.5314  -47.8030 H         1 UNK0        0.0000
     62 H          25.7271   -1.3024  -47.5078 H         1 UNK0        0.0000
     63 H          25.2547   -3.4625  -45.6013 H         1 UNK0        0.0000
     64 H          27.7273   -2.0541  -46.1992 H         1 UNK0        0.0000
     65 H          25.0936   -2.0720  -43.7145 H         1 UNK0        0.0000
     66 H          27.8437   -2.3135  -44.3546 H         1 UNK0        0.0000
     67 H          26.6347    0.1168  -45.2193 H         1 UNK0        0.0000
     68 H          27.0297    0.6641  -42.8511 H         1 UNK0        0.0000
     69 H          23.7520    2.6522  -40.9146 H         1 UNK0        0.0000
     70 H          22.2823    1.8302  -42.7399 H         1 UNK0        0.0000
     71 H          23.2485    0.4701  -44.5478 H         1 UNK0        0.0000
@<TRIPOS>BOND
     1    1    2 1
     2    1    3 2
     3    1    4 1
     4    1   23 1
     5    4    5 1
     6    5    6 1
     7    5   49 1
     8    5   50 1
     9    6    7 1
    10    6    8 1
    11    6   51 1
    12    7   12 1
    13    8    9 1
    14    8   10 1
    15    8   52 1
    16    9   53 1
    17   10   11 1
    18   10   12 1
    19   10   54 1
    20   11   44 1
    21   12   13 1
    22   12   55 1
    23   13   14 ar
    24   13   22 ar
    25   14   15 ar
    26   14   56 1
    27   15   16 ar
    28   16   17 ar
    29   16   22 ar
    30   17   18 1
    31   17   19 ar
    32   18   57 1
    33   18   58 1
    34   19   20 ar
    35   20   21 ar
    36   20   59 1
    37   21   22 ar
    38   23   24 1
    39   24   25 1
    40   24   26 2
    41   24   27 1
    42   27   28 1
    43   28   29 1
    44   28   60 1
    45   28   61 1
    46   29   30 1
    47   29   31 1
    48   29   62 1
    49   30   35 1
    50   31   32 1
    51   31   33 1
    52   31   63 1
    53   32   64 1
    54   33   34 1
    55   33   35 1
    56   33   65 1
    57   34   66 1
    58   35   36 1
    59   35   67 1
    60   36   37 ar
    61   36   43 ar
    62   37   38 ar
    63   37   68 1
    64   38   39 1
    65   38   41 ar
    66   39   40 ar
    67   39   48 ar
    68   41   42 ar
    69   41   69 1
    70   42   43 ar
    71   42   70 1
    72   43   71 1
    73   44   45 1
    74   44   46 1
    75   44   47 2
@<TRIPOS>SUBSTRUCTURE
1 UNK0 1
@<TRIPOS>COMMENT
NAADP
PLANTSmolcadARTstart hb
PLANTSmolcadARTstart HB
LINES
PLANTSmolcadARTstart HBCH
LINES
PLANTSmolcadARTstart HB-CHO
LINES
PLANTSmolcadARTend
PLANTSmolcadARTstart HB_WATER
LINES
PLANTSmolcadARTend

PLANTSmolcadARTend

